
---------- Begin Simulation Statistics ----------
simSeconds                                   0.236836                       # Number of seconds simulated (Second)
simTicks                                 236836432500                       # Number of ticks simulated (Tick)
finalTick                                236836432500                       # Number of ticks from beginning of simulation (restored from checkpoints and never reset) (Tick)
simFreq                                  1000000000000                       # The number of ticks per simulated second ((Tick/Second))
hostSeconds                                    761.06                       # Real time elapsed on the host (Second)
hostTickRate                                311194007                       # The number of ticks simulated per host second (ticks/s) ((Tick/Second))
hostMemory                                     935600                       # Number of bytes of host memory used (Byte)
simInsts                                     49946387                       # Number of instructions simulated (Count)
simOps                                       91115236                       # Number of ops (including micro ops) simulated (Count)
hostInstRate                                    65628                       # Simulator instruction rate (inst/s) ((Count/Second))
hostOpRate                                     119722                       # Simulator op (including micro ops) rate (op/s) ((Count/Second))
system.clk_domain.clock                          1000                       # Clock period in ticks (Tick)
system.cpu0.numCycles                       473672865                       # Number of cpu cycles simulated (Cycle)
system.cpu0.numWorkItemsStarted                     0                       # Number of work items this cpu started (Count)
system.cpu0.numWorkItemsCompleted                   0                       # Number of work items this cpu completed (Count)
system.cpu0.exec_context.thread_0.numInsts     21490273                       # Number of instructions committed (Count)
system.cpu0.exec_context.thread_0.numOps     41643067                       # Number of ops (including micro ops) committed (Count)
system.cpu0.exec_context.thread_0.numIntAluAccesses     28971358                       # Number of integer alu accesses (Count)
system.cpu0.exec_context.thread_0.numFpAluAccesses     14223607                       # Number of float alu accesses (Count)
system.cpu0.exec_context.thread_0.numVecAluAccesses            0                       # Number of vector alu accesses (Count)
system.cpu0.exec_context.thread_0.numCallsReturns       106944                       # Number of times a function call or return occured (Count)
system.cpu0.exec_context.thread_0.numCondCtrlInsts      1991191                       # Number of instructions that are conditional controls (Count)
system.cpu0.exec_context.thread_0.numIntInsts     28971358                       # Number of integer instructions (Count)
system.cpu0.exec_context.thread_0.numFpInsts     14223607                       # Number of float instructions (Count)
system.cpu0.exec_context.thread_0.numVecInsts            0                       # Number of vector instructions (Count)
system.cpu0.exec_context.thread_0.numIntRegReads     55535140                       # Number of times the integer registers were read (Count)
system.cpu0.exec_context.thread_0.numIntRegWrites     25701773                       # Number of times the integer registers were written (Count)
system.cpu0.exec_context.thread_0.numFpRegReads     30468383                       # Number of times the floating registers were read (Count)
system.cpu0.exec_context.thread_0.numFpRegWrites     14165021                       # Number of times the floating registers were written (Count)
system.cpu0.exec_context.thread_0.numVecRegReads            0                       # Number of times the vector registers were read (Count)
system.cpu0.exec_context.thread_0.numVecRegWrites            0                       # Number of times the vector registers were written (Count)
system.cpu0.exec_context.thread_0.numVecPredRegReads            0                       # Number of times the predicate registers were read (Count)
system.cpu0.exec_context.thread_0.numVecPredRegWrites            0                       # Number of times the predicate registers were written (Count)
system.cpu0.exec_context.thread_0.numCCRegReads     10560653                       # Number of times the CC registers were read (Count)
system.cpu0.exec_context.thread_0.numCCRegWrites     13612902                       # Number of times the CC registers were written (Count)
system.cpu0.exec_context.thread_0.numMemRefs      5979111                       # Number of memory refs (Count)
system.cpu0.exec_context.thread_0.numLoadInsts      4857296                       # Number of load instructions (Count)
system.cpu0.exec_context.thread_0.numStoreInsts      1121815                       # Number of store instructions (Count)
system.cpu0.exec_context.thread_0.numIdleCycles 386550667.000368                       # Number of idle cycles (Cycle)
system.cpu0.exec_context.thread_0.numBusyCycles 87122197.999632                       # Number of busy cycles (Cycle)
system.cpu0.exec_context.thread_0.notIdleFraction     0.183929                       # Percentage of non-idle cycles (Ratio)
system.cpu0.exec_context.thread_0.idleFraction     0.816071                       # Percentage of idle cycles (Ratio)
system.cpu0.exec_context.thread_0.numBranches      2157722                       # Number of branches fetched (Count)
system.cpu0.exec_context.thread_0.statExecutedInstType::No_OpClass        21086      0.05%      0.05% # Class of executed instruction. (Count)
system.cpu0.exec_context.thread_0.statExecutedInstType::IntAlu     24102424     57.88%     57.93% # Class of executed instruction. (Count)
system.cpu0.exec_context.thread_0.statExecutedInstType::IntMult      1572922      3.78%     61.71% # Class of executed instruction. (Count)
system.cpu0.exec_context.thread_0.statExecutedInstType::IntDiv         5463      0.01%     61.72% # Class of executed instruction. (Count)
system.cpu0.exec_context.thread_0.statExecutedInstType::FloatAdd       524417      1.26%     62.98% # Class of executed instruction. (Count)
system.cpu0.exec_context.thread_0.statExecutedInstType::FloatCmp            0      0.00%     62.98% # Class of executed instruction. (Count)
system.cpu0.exec_context.thread_0.statExecutedInstType::FloatCvt          176      0.00%     62.98% # Class of executed instruction. (Count)
system.cpu0.exec_context.thread_0.statExecutedInstType::FloatMult            0      0.00%     62.98% # Class of executed instruction. (Count)
system.cpu0.exec_context.thread_0.statExecutedInstType::FloatMultAcc            0      0.00%     62.98% # Class of executed instruction. (Count)
system.cpu0.exec_context.thread_0.statExecutedInstType::FloatDiv            0      0.00%     62.98% # Class of executed instruction. (Count)
system.cpu0.exec_context.thread_0.statExecutedInstType::FloatMisc            0      0.00%     62.98% # Class of executed instruction. (Count)
system.cpu0.exec_context.thread_0.statExecutedInstType::FloatSqrt            0      0.00%     62.98% # Class of executed instruction. (Count)
system.cpu0.exec_context.thread_0.statExecutedInstType::SimdAdd      1048576      2.52%     65.50% # Class of executed instruction. (Count)
system.cpu0.exec_context.thread_0.statExecutedInstType::SimdAddAcc            0      0.00%     65.50% # Class of executed instruction. (Count)
system.cpu0.exec_context.thread_0.statExecutedInstType::SimdAlu           84      0.00%     65.50% # Class of executed instruction. (Count)
system.cpu0.exec_context.thread_0.statExecutedInstType::SimdCmp            0      0.00%     65.50% # Class of executed instruction. (Count)
system.cpu0.exec_context.thread_0.statExecutedInstType::SimdCvt          132      0.00%     65.50% # Class of executed instruction. (Count)
system.cpu0.exec_context.thread_0.statExecutedInstType::SimdMisc      4194585     10.07%     75.57% # Class of executed instruction. (Count)
system.cpu0.exec_context.thread_0.statExecutedInstType::SimdMult      2097152      5.04%     80.61% # Class of executed instruction. (Count)
system.cpu0.exec_context.thread_0.statExecutedInstType::SimdMultAcc            0      0.00%     80.61% # Class of executed instruction. (Count)
system.cpu0.exec_context.thread_0.statExecutedInstType::SimdShift      2097152      5.04%     85.64% # Class of executed instruction. (Count)
system.cpu0.exec_context.thread_0.statExecutedInstType::SimdShiftAcc            0      0.00%     85.64% # Class of executed instruction. (Count)
system.cpu0.exec_context.thread_0.statExecutedInstType::SimdDiv            0      0.00%     85.64% # Class of executed instruction. (Count)
system.cpu0.exec_context.thread_0.statExecutedInstType::SimdSqrt            0      0.00%     85.64% # Class of executed instruction. (Count)
system.cpu0.exec_context.thread_0.statExecutedInstType::SimdFloatAdd            4      0.00%     85.64% # Class of executed instruction. (Count)
system.cpu0.exec_context.thread_0.statExecutedInstType::SimdFloatAlu            0      0.00%     85.64% # Class of executed instruction. (Count)
system.cpu0.exec_context.thread_0.statExecutedInstType::SimdFloatCmp            0      0.00%     85.64% # Class of executed instruction. (Count)
system.cpu0.exec_context.thread_0.statExecutedInstType::SimdFloatCvt            8      0.00%     85.64% # Class of executed instruction. (Count)
system.cpu0.exec_context.thread_0.statExecutedInstType::SimdFloatDiv            4      0.00%     85.64% # Class of executed instruction. (Count)
system.cpu0.exec_context.thread_0.statExecutedInstType::SimdFloatMisc            0      0.00%     85.64% # Class of executed instruction. (Count)
system.cpu0.exec_context.thread_0.statExecutedInstType::SimdFloatMult            4      0.00%     85.64% # Class of executed instruction. (Count)
system.cpu0.exec_context.thread_0.statExecutedInstType::SimdFloatMultAcc            0      0.00%     85.64% # Class of executed instruction. (Count)
system.cpu0.exec_context.thread_0.statExecutedInstType::SimdFloatSqrt            0      0.00%     85.64% # Class of executed instruction. (Count)
system.cpu0.exec_context.thread_0.statExecutedInstType::SimdReduceAdd            0      0.00%     85.64% # Class of executed instruction. (Count)
system.cpu0.exec_context.thread_0.statExecutedInstType::SimdReduceAlu            0      0.00%     85.64% # Class of executed instruction. (Count)
system.cpu0.exec_context.thread_0.statExecutedInstType::SimdReduceCmp            0      0.00%     85.64% # Class of executed instruction. (Count)
system.cpu0.exec_context.thread_0.statExecutedInstType::SimdFloatReduceAdd            0      0.00%     85.64% # Class of executed instruction. (Count)
system.cpu0.exec_context.thread_0.statExecutedInstType::SimdFloatReduceCmp            0      0.00%     85.64% # Class of executed instruction. (Count)
system.cpu0.exec_context.thread_0.statExecutedInstType::SimdAes            0      0.00%     85.64% # Class of executed instruction. (Count)
system.cpu0.exec_context.thread_0.statExecutedInstType::SimdAesMix            0      0.00%     85.64% # Class of executed instruction. (Count)
system.cpu0.exec_context.thread_0.statExecutedInstType::SimdSha1Hash            0      0.00%     85.64% # Class of executed instruction. (Count)
system.cpu0.exec_context.thread_0.statExecutedInstType::SimdSha1Hash2            0      0.00%     85.64% # Class of executed instruction. (Count)
system.cpu0.exec_context.thread_0.statExecutedInstType::SimdSha256Hash            0      0.00%     85.64% # Class of executed instruction. (Count)
system.cpu0.exec_context.thread_0.statExecutedInstType::SimdSha256Hash2            0      0.00%     85.64% # Class of executed instruction. (Count)
system.cpu0.exec_context.thread_0.statExecutedInstType::SimdShaSigma2            0      0.00%     85.64% # Class of executed instruction. (Count)
system.cpu0.exec_context.thread_0.statExecutedInstType::SimdShaSigma3            0      0.00%     85.64% # Class of executed instruction. (Count)
system.cpu0.exec_context.thread_0.statExecutedInstType::SimdPredAlu            0      0.00%     85.64% # Class of executed instruction. (Count)
system.cpu0.exec_context.thread_0.statExecutedInstType::MemRead      3275784      7.87%     93.51% # Class of executed instruction. (Count)
system.cpu0.exec_context.thread_0.statExecutedInstType::MemWrite      1063547      2.55%     96.06% # Class of executed instruction. (Count)
system.cpu0.exec_context.thread_0.statExecutedInstType::FloatMemRead      1581512      3.80%     99.86% # Class of executed instruction. (Count)
system.cpu0.exec_context.thread_0.statExecutedInstType::FloatMemWrite        58268      0.14%    100.00% # Class of executed instruction. (Count)
system.cpu0.exec_context.thread_0.statExecutedInstType::IprAccess            0      0.00%    100.00% # Class of executed instruction. (Count)
system.cpu0.exec_context.thread_0.statExecutedInstType::InstPrefetch            0      0.00%    100.00% # Class of executed instruction. (Count)
system.cpu0.exec_context.thread_0.statExecutedInstType::total     41643300                       # Class of executed instruction. (Count)
system.cpu0.interrupts.clk_domain.clock          8000                       # Clock period in ticks (Tick)
system.cpu0.mmu.dtb.rdAccesses                4857299                       # TLB accesses on read requests (Count)
system.cpu0.mmu.dtb.wrAccesses                1121817                       # TLB accesses on write requests (Count)
system.cpu0.mmu.dtb.rdMisses                      361                       # TLB misses on read requests (Count)
system.cpu0.mmu.dtb.wrMisses                      218                       # TLB misses on write requests (Count)
system.cpu0.mmu.dtb.walker.power_state.pwrStateResidencyTicks::UNDEFINED 236836432500                       # Cumulative time (in ticks) in various power states (Tick)
system.cpu0.mmu.itb.rdAccesses                      0                       # TLB accesses on read requests (Count)
system.cpu0.mmu.itb.wrAccesses               27493487                       # TLB accesses on write requests (Count)
system.cpu0.mmu.itb.rdMisses                        0                       # TLB misses on read requests (Count)
system.cpu0.mmu.itb.wrMisses                      210                       # TLB misses on write requests (Count)
system.cpu0.mmu.itb.walker.power_state.pwrStateResidencyTicks::UNDEFINED 236836432500                       # Cumulative time (in ticks) in various power states (Tick)
system.cpu0.power_state.numTransitions              8                       # Number of power state transitions (Count)
system.cpu0.power_state.ticksClkGated::samples            4                       # Distribution of time spent in the clock gated state (Tick)
system.cpu0.power_state.ticksClkGated::mean  48318833375                       # Distribution of time spent in the clock gated state (Tick)
system.cpu0.power_state.ticksClkGated::stdev 86970090065.588440                       # Distribution of time spent in the clock gated state (Tick)
system.cpu0.power_state.ticksClkGated::1000-5e+10            3     75.00%     75.00% # Distribution of time spent in the clock gated state (Tick)
system.cpu0.power_state.ticksClkGated::1.5e+11-2e+11            1     25.00%    100.00% # Distribution of time spent in the clock gated state (Tick)
system.cpu0.power_state.ticksClkGated::min_value      7184000                       # Distribution of time spent in the clock gated state (Tick)
system.cpu0.power_state.ticksClkGated::max_value 178603513500                       # Distribution of time spent in the clock gated state (Tick)
system.cpu0.power_state.ticksClkGated::total            4                       # Distribution of time spent in the clock gated state (Tick)
system.cpu0.power_state.pwrStateResidencyTicks::ON  43561099000                       # Cumulative time (in ticks) in various power states (Tick)
system.cpu0.power_state.pwrStateResidencyTicks::CLK_GATED 193275333500                       # Cumulative time (in ticks) in various power states (Tick)
system.cpu0.thread_0.numInsts                       0                       # Number of Instructions committed (Count)
system.cpu0.thread_0.numOps                         0                       # Number of Ops committed (Count)
system.cpu0.thread_0.numMemRefs                     0                       # Number of Memory References (Count)
system.cpu0.workload.numSyscalls                   81                       # Number of system calls (Count)
system.cpu1.numCycles                       463723831                       # Number of cpu cycles simulated (Cycle)
system.cpu1.numWorkItemsStarted                     0                       # Number of work items this cpu started (Count)
system.cpu1.numWorkItemsCompleted                   0                       # Number of work items this cpu completed (Count)
system.cpu1.exec_context.thread_0.numInsts      9313912                       # Number of instructions committed (Count)
system.cpu1.exec_context.thread_0.numOps     16199324                       # Number of ops (including micro ops) committed (Count)
system.cpu1.exec_context.thread_0.numIntAluAccesses     16190317                       # Number of integer alu accesses (Count)
system.cpu1.exec_context.thread_0.numFpAluAccesses           81                       # Number of float alu accesses (Count)
system.cpu1.exec_context.thread_0.numVecAluAccesses            0                       # Number of vector alu accesses (Count)
system.cpu1.exec_context.thread_0.numCallsReturns          810                       # Number of times a function call or return occured (Count)
system.cpu1.exec_context.thread_0.numCondCtrlInsts       701030                       # Number of instructions that are conditional controls (Count)
system.cpu1.exec_context.thread_0.numIntInsts     16190317                       # Number of integer instructions (Count)
system.cpu1.exec_context.thread_0.numFpInsts           81                       # Number of float instructions (Count)
system.cpu1.exec_context.thread_0.numVecInsts            0                       # Number of vector instructions (Count)
system.cpu1.exec_context.thread_0.numIntRegReads     32559011                       # Number of times the integer registers were read (Count)
system.cpu1.exec_context.thread_0.numIntRegWrites     16489973                       # Number of times the integer registers were written (Count)
system.cpu1.exec_context.thread_0.numFpRegReads           89                       # Number of times the floating registers were read (Count)
system.cpu1.exec_context.thread_0.numFpRegWrites            9                       # Number of times the floating registers were written (Count)
system.cpu1.exec_context.thread_0.numVecRegReads            0                       # Number of times the vector registers were read (Count)
system.cpu1.exec_context.thread_0.numVecRegWrites            0                       # Number of times the vector registers were written (Count)
system.cpu1.exec_context.thread_0.numVecPredRegReads            0                       # Number of times the predicate registers were read (Count)
system.cpu1.exec_context.thread_0.numVecPredRegWrites            0                       # Number of times the predicate registers were written (Count)
system.cpu1.exec_context.thread_0.numCCRegReads      3697632                       # Number of times the CC registers were read (Count)
system.cpu1.exec_context.thread_0.numCCRegWrites      7580016                       # Number of times the CC registers were written (Count)
system.cpu1.exec_context.thread_0.numMemRefs      2812907                       # Number of memory refs (Count)
system.cpu1.exec_context.thread_0.numLoadInsts      2253920                       # Number of load instructions (Count)
system.cpu1.exec_context.thread_0.numStoreInsts       558987                       # Number of store instructions (Count)
system.cpu1.exec_context.thread_0.numIdleCycles 77929633.731692                       # Number of idle cycles (Cycle)
system.cpu1.exec_context.thread_0.numBusyCycles 385794197.268308                       # Number of busy cycles (Cycle)
system.cpu1.exec_context.thread_0.notIdleFraction     0.831948                       # Percentage of non-idle cycles (Ratio)
system.cpu1.exec_context.thread_0.idleFraction     0.168052                       # Percentage of idle cycles (Ratio)
system.cpu1.exec_context.thread_0.numBranches       714381                       # Number of branches fetched (Count)
system.cpu1.exec_context.thread_0.statExecutedInstType::No_OpClass         8948      0.06%      0.06% # Class of executed instruction. (Count)
system.cpu1.exec_context.thread_0.statExecutedInstType::IntAlu     11804597     72.87%     72.93% # Class of executed instruction. (Count)
system.cpu1.exec_context.thread_0.statExecutedInstType::IntMult      1572865      9.71%     82.64% # Class of executed instruction. (Count)
system.cpu1.exec_context.thread_0.statExecutedInstType::IntDiv            7      0.00%     82.64% # Class of executed instruction. (Count)
system.cpu1.exec_context.thread_0.statExecutedInstType::FloatAdd            1      0.00%     82.64% # Class of executed instruction. (Count)
system.cpu1.exec_context.thread_0.statExecutedInstType::FloatCmp            0      0.00%     82.64% # Class of executed instruction. (Count)
system.cpu1.exec_context.thread_0.statExecutedInstType::FloatCvt            0      0.00%     82.64% # Class of executed instruction. (Count)
system.cpu1.exec_context.thread_0.statExecutedInstType::FloatMult            0      0.00%     82.64% # Class of executed instruction. (Count)
system.cpu1.exec_context.thread_0.statExecutedInstType::FloatMultAcc            0      0.00%     82.64% # Class of executed instruction. (Count)
system.cpu1.exec_context.thread_0.statExecutedInstType::FloatDiv            0      0.00%     82.64% # Class of executed instruction. (Count)
system.cpu1.exec_context.thread_0.statExecutedInstType::FloatMisc            0      0.00%     82.64% # Class of executed instruction. (Count)
system.cpu1.exec_context.thread_0.statExecutedInstType::FloatSqrt            0      0.00%     82.64% # Class of executed instruction. (Count)
system.cpu1.exec_context.thread_0.statExecutedInstType::SimdAdd            0      0.00%     82.64% # Class of executed instruction. (Count)
system.cpu1.exec_context.thread_0.statExecutedInstType::SimdAddAcc            0      0.00%     82.64% # Class of executed instruction. (Count)
system.cpu1.exec_context.thread_0.statExecutedInstType::SimdAlu            0      0.00%     82.64% # Class of executed instruction. (Count)
system.cpu1.exec_context.thread_0.statExecutedInstType::SimdCmp            0      0.00%     82.64% # Class of executed instruction. (Count)
system.cpu1.exec_context.thread_0.statExecutedInstType::SimdCvt            0      0.00%     82.64% # Class of executed instruction. (Count)
system.cpu1.exec_context.thread_0.statExecutedInstType::SimdMisc            7      0.00%     82.64% # Class of executed instruction. (Count)
system.cpu1.exec_context.thread_0.statExecutedInstType::SimdMult            0      0.00%     82.64% # Class of executed instruction. (Count)
system.cpu1.exec_context.thread_0.statExecutedInstType::SimdMultAcc            0      0.00%     82.64% # Class of executed instruction. (Count)
system.cpu1.exec_context.thread_0.statExecutedInstType::SimdShift            0      0.00%     82.64% # Class of executed instruction. (Count)
system.cpu1.exec_context.thread_0.statExecutedInstType::SimdShiftAcc            0      0.00%     82.64% # Class of executed instruction. (Count)
system.cpu1.exec_context.thread_0.statExecutedInstType::SimdDiv            0      0.00%     82.64% # Class of executed instruction. (Count)
system.cpu1.exec_context.thread_0.statExecutedInstType::SimdSqrt            0      0.00%     82.64% # Class of executed instruction. (Count)
system.cpu1.exec_context.thread_0.statExecutedInstType::SimdFloatAdd            0      0.00%     82.64% # Class of executed instruction. (Count)
system.cpu1.exec_context.thread_0.statExecutedInstType::SimdFloatAlu            0      0.00%     82.64% # Class of executed instruction. (Count)
system.cpu1.exec_context.thread_0.statExecutedInstType::SimdFloatCmp            0      0.00%     82.64% # Class of executed instruction. (Count)
system.cpu1.exec_context.thread_0.statExecutedInstType::SimdFloatCvt            0      0.00%     82.64% # Class of executed instruction. (Count)
system.cpu1.exec_context.thread_0.statExecutedInstType::SimdFloatDiv            0      0.00%     82.64% # Class of executed instruction. (Count)
system.cpu1.exec_context.thread_0.statExecutedInstType::SimdFloatMisc            0      0.00%     82.64% # Class of executed instruction. (Count)
system.cpu1.exec_context.thread_0.statExecutedInstType::SimdFloatMult            0      0.00%     82.64% # Class of executed instruction. (Count)
system.cpu1.exec_context.thread_0.statExecutedInstType::SimdFloatMultAcc            0      0.00%     82.64% # Class of executed instruction. (Count)
system.cpu1.exec_context.thread_0.statExecutedInstType::SimdFloatSqrt            0      0.00%     82.64% # Class of executed instruction. (Count)
system.cpu1.exec_context.thread_0.statExecutedInstType::SimdReduceAdd            0      0.00%     82.64% # Class of executed instruction. (Count)
system.cpu1.exec_context.thread_0.statExecutedInstType::SimdReduceAlu            0      0.00%     82.64% # Class of executed instruction. (Count)
system.cpu1.exec_context.thread_0.statExecutedInstType::SimdReduceCmp            0      0.00%     82.64% # Class of executed instruction. (Count)
system.cpu1.exec_context.thread_0.statExecutedInstType::SimdFloatReduceAdd            0      0.00%     82.64% # Class of executed instruction. (Count)
system.cpu1.exec_context.thread_0.statExecutedInstType::SimdFloatReduceCmp            0      0.00%     82.64% # Class of executed instruction. (Count)
system.cpu1.exec_context.thread_0.statExecutedInstType::SimdAes            0      0.00%     82.64% # Class of executed instruction. (Count)
system.cpu1.exec_context.thread_0.statExecutedInstType::SimdAesMix            0      0.00%     82.64% # Class of executed instruction. (Count)
system.cpu1.exec_context.thread_0.statExecutedInstType::SimdSha1Hash            0      0.00%     82.64% # Class of executed instruction. (Count)
system.cpu1.exec_context.thread_0.statExecutedInstType::SimdSha1Hash2            0      0.00%     82.64% # Class of executed instruction. (Count)
system.cpu1.exec_context.thread_0.statExecutedInstType::SimdSha256Hash            0      0.00%     82.64% # Class of executed instruction. (Count)
system.cpu1.exec_context.thread_0.statExecutedInstType::SimdSha256Hash2            0      0.00%     82.64% # Class of executed instruction. (Count)
system.cpu1.exec_context.thread_0.statExecutedInstType::SimdShaSigma2            0      0.00%     82.64% # Class of executed instruction. (Count)
system.cpu1.exec_context.thread_0.statExecutedInstType::SimdShaSigma3            0      0.00%     82.64% # Class of executed instruction. (Count)
system.cpu1.exec_context.thread_0.statExecutedInstType::SimdPredAlu            0      0.00%     82.64% # Class of executed instruction. (Count)
system.cpu1.exec_context.thread_0.statExecutedInstType::MemRead      2253920     13.91%     96.55% # Class of executed instruction. (Count)
system.cpu1.exec_context.thread_0.statExecutedInstType::MemWrite       558915      3.45%    100.00% # Class of executed instruction. (Count)
system.cpu1.exec_context.thread_0.statExecutedInstType::FloatMemRead            0      0.00%    100.00% # Class of executed instruction. (Count)
system.cpu1.exec_context.thread_0.statExecutedInstType::FloatMemWrite           72      0.00%    100.00% # Class of executed instruction. (Count)
system.cpu1.exec_context.thread_0.statExecutedInstType::IprAccess            0      0.00%    100.00% # Class of executed instruction. (Count)
system.cpu1.exec_context.thread_0.statExecutedInstType::InstPrefetch            0      0.00%    100.00% # Class of executed instruction. (Count)
system.cpu1.exec_context.thread_0.statExecutedInstType::total     16199332                       # Class of executed instruction. (Count)
system.cpu1.interrupts.clk_domain.clock          8000                       # Clock period in ticks (Tick)
system.cpu1.mmu.dtb.rdAccesses                2253920                       # TLB accesses on read requests (Count)
system.cpu1.mmu.dtb.wrAccesses                 558987                       # TLB accesses on write requests (Count)
system.cpu1.mmu.dtb.rdMisses                       73                       # TLB misses on read requests (Count)
system.cpu1.mmu.dtb.wrMisses                        5                       # TLB misses on write requests (Count)
system.cpu1.mmu.dtb.walker.power_state.pwrStateResidencyTicks::UNDEFINED 236836432500                       # Cumulative time (in ticks) in various power states (Tick)
system.cpu1.mmu.itb.rdAccesses                      0                       # TLB accesses on read requests (Count)
system.cpu1.mmu.itb.wrAccesses               12178157                       # TLB accesses on write requests (Count)
system.cpu1.mmu.itb.rdMisses                        0                       # TLB misses on read requests (Count)
system.cpu1.mmu.itb.wrMisses                       37                       # TLB misses on write requests (Count)
system.cpu1.mmu.itb.walker.power_state.pwrStateResidencyTicks::UNDEFINED 236836432500                       # Cumulative time (in ticks) in various power states (Tick)
system.cpu1.power_state.numTransitions              2                       # Number of power state transitions (Count)
system.cpu1.power_state.ticksClkGated::samples            1                       # Distribution of time spent in the clock gated state (Tick)
system.cpu1.power_state.ticksClkGated::mean   2305172500                       # Distribution of time spent in the clock gated state (Tick)
system.cpu1.power_state.ticksClkGated::1000-5e+10            1    100.00%    100.00% # Distribution of time spent in the clock gated state (Tick)
system.cpu1.power_state.ticksClkGated::min_value   2305172500                       # Distribution of time spent in the clock gated state (Tick)
system.cpu1.power_state.ticksClkGated::max_value   2305172500                       # Distribution of time spent in the clock gated state (Tick)
system.cpu1.power_state.ticksClkGated::total            1                       # Distribution of time spent in the clock gated state (Tick)
system.cpu1.power_state.pwrStateResidencyTicks::ON 234531260000                       # Cumulative time (in ticks) in various power states (Tick)
system.cpu1.power_state.pwrStateResidencyTicks::CLK_GATED   2305172500                       # Cumulative time (in ticks) in various power states (Tick)
system.cpu1.thread_0.numInsts                       0                       # Number of Instructions committed (Count)
system.cpu1.thread_0.numOps                         0                       # Number of Ops committed (Count)
system.cpu1.thread_0.numMemRefs                     0                       # Number of Memory References (Count)
system.cpu2.numCycles                       463720250                       # Number of cpu cycles simulated (Cycle)
system.cpu2.numWorkItemsStarted                     0                       # Number of work items this cpu started (Count)
system.cpu2.numWorkItemsCompleted                   0                       # Number of work items this cpu completed (Count)
system.cpu2.exec_context.thread_0.numInsts     10724419                       # Number of instructions committed (Count)
system.cpu2.exec_context.thread_0.numOps     18542730                       # Number of ops (including micro ops) committed (Count)
system.cpu2.exec_context.thread_0.numIntAluAccesses     18532256                       # Number of integer alu accesses (Count)
system.cpu2.exec_context.thread_0.numFpAluAccesses            0                       # Number of float alu accesses (Count)
system.cpu2.exec_context.thread_0.numVecAluAccesses            0                       # Number of vector alu accesses (Count)
system.cpu2.exec_context.thread_0.numCallsReturns         1934                       # Number of times a function call or return occured (Count)
system.cpu2.exec_context.thread_0.numCondCtrlInsts       974630                       # Number of instructions that are conditional controls (Count)
system.cpu2.exec_context.thread_0.numIntInsts     18532256                       # Number of integer instructions (Count)
system.cpu2.exec_context.thread_0.numFpInsts            0                       # Number of float instructions (Count)
system.cpu2.exec_context.thread_0.numVecInsts            0                       # Number of vector instructions (Count)
system.cpu2.exec_context.thread_0.numIntRegReads     36751369                       # Number of times the integer registers were read (Count)
system.cpu2.exec_context.thread_0.numIntRegWrites     18483080                       # Number of times the integer registers were written (Count)
system.cpu2.exec_context.thread_0.numFpRegReads            0                       # Number of times the floating registers were read (Count)
system.cpu2.exec_context.thread_0.numFpRegWrites            0                       # Number of times the floating registers were written (Count)
system.cpu2.exec_context.thread_0.numVecRegReads            0                       # Number of times the vector registers were read (Count)
system.cpu2.exec_context.thread_0.numVecRegWrites            0                       # Number of times the vector registers were written (Count)
system.cpu2.exec_context.thread_0.numVecPredRegReads            0                       # Number of times the predicate registers were read (Count)
system.cpu2.exec_context.thread_0.numVecPredRegWrites            0                       # Number of times the predicate registers were written (Count)
system.cpu2.exec_context.thread_0.numCCRegReads      5350828                       # Number of times the CC registers were read (Count)
system.cpu2.exec_context.thread_0.numCCRegWrites      8735287                       # Number of times the CC registers were written (Count)
system.cpu2.exec_context.thread_0.numMemRefs      3133313                       # Number of memory refs (Count)
system.cpu2.exec_context.thread_0.numLoadInsts      2519156                       # Number of load instructions (Count)
system.cpu2.exec_context.thread_0.numStoreInsts       614157                       # Number of store instructions (Count)
system.cpu2.exec_context.thread_0.numIdleCycles 52768429.408228                       # Number of idle cycles (Cycle)
system.cpu2.exec_context.thread_0.numBusyCycles 410951820.591772                       # Number of busy cycles (Cycle)
system.cpu2.exec_context.thread_0.notIdleFraction     0.886206                       # Percentage of non-idle cycles (Ratio)
system.cpu2.exec_context.thread_0.idleFraction     0.113794                       # Percentage of idle cycles (Ratio)
system.cpu2.exec_context.thread_0.numBranches      1007899                       # Number of branches fetched (Count)
system.cpu2.exec_context.thread_0.statExecutedInstType::No_OpClass        10421      0.06%      0.06% # Class of executed instruction. (Count)
system.cpu2.exec_context.thread_0.statExecutedInstType::IntAlu     13826136     74.56%     74.62% # Class of executed instruction. (Count)
system.cpu2.exec_context.thread_0.statExecutedInstType::IntMult      1572865      8.48%     83.10% # Class of executed instruction. (Count)
system.cpu2.exec_context.thread_0.statExecutedInstType::IntDiv            7      0.00%     83.10% # Class of executed instruction. (Count)
system.cpu2.exec_context.thread_0.statExecutedInstType::FloatAdd            0      0.00%     83.10% # Class of executed instruction. (Count)
system.cpu2.exec_context.thread_0.statExecutedInstType::FloatCmp            0      0.00%     83.10% # Class of executed instruction. (Count)
system.cpu2.exec_context.thread_0.statExecutedInstType::FloatCvt            0      0.00%     83.10% # Class of executed instruction. (Count)
system.cpu2.exec_context.thread_0.statExecutedInstType::FloatMult            0      0.00%     83.10% # Class of executed instruction. (Count)
system.cpu2.exec_context.thread_0.statExecutedInstType::FloatMultAcc            0      0.00%     83.10% # Class of executed instruction. (Count)
system.cpu2.exec_context.thread_0.statExecutedInstType::FloatDiv            0      0.00%     83.10% # Class of executed instruction. (Count)
system.cpu2.exec_context.thread_0.statExecutedInstType::FloatMisc            0      0.00%     83.10% # Class of executed instruction. (Count)
system.cpu2.exec_context.thread_0.statExecutedInstType::FloatSqrt            0      0.00%     83.10% # Class of executed instruction. (Count)
system.cpu2.exec_context.thread_0.statExecutedInstType::SimdAdd            0      0.00%     83.10% # Class of executed instruction. (Count)
system.cpu2.exec_context.thread_0.statExecutedInstType::SimdAddAcc            0      0.00%     83.10% # Class of executed instruction. (Count)
system.cpu2.exec_context.thread_0.statExecutedInstType::SimdAlu            0      0.00%     83.10% # Class of executed instruction. (Count)
system.cpu2.exec_context.thread_0.statExecutedInstType::SimdCmp            0      0.00%     83.10% # Class of executed instruction. (Count)
system.cpu2.exec_context.thread_0.statExecutedInstType::SimdCvt            0      0.00%     83.10% # Class of executed instruction. (Count)
system.cpu2.exec_context.thread_0.statExecutedInstType::SimdMisc            0      0.00%     83.10% # Class of executed instruction. (Count)
system.cpu2.exec_context.thread_0.statExecutedInstType::SimdMult            0      0.00%     83.10% # Class of executed instruction. (Count)
system.cpu2.exec_context.thread_0.statExecutedInstType::SimdMultAcc            0      0.00%     83.10% # Class of executed instruction. (Count)
system.cpu2.exec_context.thread_0.statExecutedInstType::SimdShift            0      0.00%     83.10% # Class of executed instruction. (Count)
system.cpu2.exec_context.thread_0.statExecutedInstType::SimdShiftAcc            0      0.00%     83.10% # Class of executed instruction. (Count)
system.cpu2.exec_context.thread_0.statExecutedInstType::SimdDiv            0      0.00%     83.10% # Class of executed instruction. (Count)
system.cpu2.exec_context.thread_0.statExecutedInstType::SimdSqrt            0      0.00%     83.10% # Class of executed instruction. (Count)
system.cpu2.exec_context.thread_0.statExecutedInstType::SimdFloatAdd            0      0.00%     83.10% # Class of executed instruction. (Count)
system.cpu2.exec_context.thread_0.statExecutedInstType::SimdFloatAlu            0      0.00%     83.10% # Class of executed instruction. (Count)
system.cpu2.exec_context.thread_0.statExecutedInstType::SimdFloatCmp            0      0.00%     83.10% # Class of executed instruction. (Count)
system.cpu2.exec_context.thread_0.statExecutedInstType::SimdFloatCvt            0      0.00%     83.10% # Class of executed instruction. (Count)
system.cpu2.exec_context.thread_0.statExecutedInstType::SimdFloatDiv            0      0.00%     83.10% # Class of executed instruction. (Count)
system.cpu2.exec_context.thread_0.statExecutedInstType::SimdFloatMisc            0      0.00%     83.10% # Class of executed instruction. (Count)
system.cpu2.exec_context.thread_0.statExecutedInstType::SimdFloatMult            0      0.00%     83.10% # Class of executed instruction. (Count)
system.cpu2.exec_context.thread_0.statExecutedInstType::SimdFloatMultAcc            0      0.00%     83.10% # Class of executed instruction. (Count)
system.cpu2.exec_context.thread_0.statExecutedInstType::SimdFloatSqrt            0      0.00%     83.10% # Class of executed instruction. (Count)
system.cpu2.exec_context.thread_0.statExecutedInstType::SimdReduceAdd            0      0.00%     83.10% # Class of executed instruction. (Count)
system.cpu2.exec_context.thread_0.statExecutedInstType::SimdReduceAlu            0      0.00%     83.10% # Class of executed instruction. (Count)
system.cpu2.exec_context.thread_0.statExecutedInstType::SimdReduceCmp            0      0.00%     83.10% # Class of executed instruction. (Count)
system.cpu2.exec_context.thread_0.statExecutedInstType::SimdFloatReduceAdd            0      0.00%     83.10% # Class of executed instruction. (Count)
system.cpu2.exec_context.thread_0.statExecutedInstType::SimdFloatReduceCmp            0      0.00%     83.10% # Class of executed instruction. (Count)
system.cpu2.exec_context.thread_0.statExecutedInstType::SimdAes            0      0.00%     83.10% # Class of executed instruction. (Count)
system.cpu2.exec_context.thread_0.statExecutedInstType::SimdAesMix            0      0.00%     83.10% # Class of executed instruction. (Count)
system.cpu2.exec_context.thread_0.statExecutedInstType::SimdSha1Hash            0      0.00%     83.10% # Class of executed instruction. (Count)
system.cpu2.exec_context.thread_0.statExecutedInstType::SimdSha1Hash2            0      0.00%     83.10% # Class of executed instruction. (Count)
system.cpu2.exec_context.thread_0.statExecutedInstType::SimdSha256Hash            0      0.00%     83.10% # Class of executed instruction. (Count)
system.cpu2.exec_context.thread_0.statExecutedInstType::SimdSha256Hash2            0      0.00%     83.10% # Class of executed instruction. (Count)
system.cpu2.exec_context.thread_0.statExecutedInstType::SimdShaSigma2            0      0.00%     83.10% # Class of executed instruction. (Count)
system.cpu2.exec_context.thread_0.statExecutedInstType::SimdShaSigma3            0      0.00%     83.10% # Class of executed instruction. (Count)
system.cpu2.exec_context.thread_0.statExecutedInstType::SimdPredAlu            0      0.00%     83.10% # Class of executed instruction. (Count)
system.cpu2.exec_context.thread_0.statExecutedInstType::MemRead      2519156     13.59%     96.69% # Class of executed instruction. (Count)
system.cpu2.exec_context.thread_0.statExecutedInstType::MemWrite       614157      3.31%    100.00% # Class of executed instruction. (Count)
system.cpu2.exec_context.thread_0.statExecutedInstType::FloatMemRead            0      0.00%    100.00% # Class of executed instruction. (Count)
system.cpu2.exec_context.thread_0.statExecutedInstType::FloatMemWrite            0      0.00%    100.00% # Class of executed instruction. (Count)
system.cpu2.exec_context.thread_0.statExecutedInstType::IprAccess            0      0.00%    100.00% # Class of executed instruction. (Count)
system.cpu2.exec_context.thread_0.statExecutedInstType::InstPrefetch            0      0.00%    100.00% # Class of executed instruction. (Count)
system.cpu2.exec_context.thread_0.statExecutedInstType::total     18542742                       # Class of executed instruction. (Count)
system.cpu2.interrupts.clk_domain.clock          8000                       # Clock period in ticks (Tick)
system.cpu2.mmu.dtb.rdAccesses                2519156                       # TLB accesses on read requests (Count)
system.cpu2.mmu.dtb.wrAccesses                 614157                       # TLB accesses on write requests (Count)
system.cpu2.mmu.dtb.rdMisses                       93                       # TLB misses on read requests (Count)
system.cpu2.mmu.dtb.wrMisses                        4                       # TLB misses on write requests (Count)
system.cpu2.mmu.dtb.walker.power_state.pwrStateResidencyTicks::UNDEFINED 236836432500                       # Cumulative time (in ticks) in various power states (Tick)
system.cpu2.mmu.itb.rdAccesses                      0                       # TLB accesses on read requests (Count)
system.cpu2.mmu.itb.wrAccesses               13979029                       # TLB accesses on write requests (Count)
system.cpu2.mmu.itb.rdMisses                        0                       # TLB misses on read requests (Count)
system.cpu2.mmu.itb.wrMisses                       60                       # TLB misses on write requests (Count)
system.cpu2.mmu.itb.walker.power_state.pwrStateResidencyTicks::UNDEFINED 236836432500                       # Cumulative time (in ticks) in various power states (Tick)
system.cpu2.power_state.pwrStateResidencyTicks::ON 236836432500                       # Cumulative time (in ticks) in various power states (Tick)
system.cpu2.thread_0.numInsts                       0                       # Number of Instructions committed (Count)
system.cpu2.thread_0.numOps                         0                       # Number of Ops committed (Count)
system.cpu2.thread_0.numMemRefs                     0                       # Number of Memory References (Count)
system.cpu3.numCycles                       416099464                       # Number of cpu cycles simulated (Cycle)
system.cpu3.numWorkItemsStarted                     0                       # Number of work items this cpu started (Count)
system.cpu3.numWorkItemsCompleted                   0                       # Number of work items this cpu completed (Count)
system.cpu3.exec_context.thread_0.numInsts      8417783                       # Number of instructions committed (Count)
system.cpu3.exec_context.thread_0.numOps     14730115                       # Number of ops (including micro ops) committed (Count)
system.cpu3.exec_context.thread_0.numIntAluAccesses     14725977                       # Number of integer alu accesses (Count)
system.cpu3.exec_context.thread_0.numFpAluAccesses            0                       # Number of float alu accesses (Count)
system.cpu3.exec_context.thread_0.numVecAluAccesses            0                       # Number of vector alu accesses (Count)
system.cpu3.exec_context.thread_0.numCallsReturns           25                       # Number of times a function call or return occured (Count)
system.cpu3.exec_context.thread_0.numCondCtrlInsts       532540                       # Number of instructions that are conditional controls (Count)
system.cpu3.exec_context.thread_0.numIntInsts     14725977                       # Number of integer instructions (Count)
system.cpu3.exec_context.thread_0.numFpInsts            0                       # Number of float instructions (Count)
system.cpu3.exec_context.thread_0.numVecInsts            0                       # Number of vector instructions (Count)
system.cpu3.exec_context.thread_0.numIntRegReads     29951673                       # Number of times the integer registers were read (Count)
system.cpu3.exec_context.thread_0.numIntRegWrites     15241940                       # Number of times the integer registers were written (Count)
system.cpu3.exec_context.thread_0.numFpRegReads            0                       # Number of times the floating registers were read (Count)
system.cpu3.exec_context.thread_0.numFpRegWrites            0                       # Number of times the floating registers were written (Count)
system.cpu3.exec_context.thread_0.numVecRegReads            0                       # Number of times the vector registers were read (Count)
system.cpu3.exec_context.thread_0.numVecRegWrites            0                       # Number of times the vector registers were written (Count)
system.cpu3.exec_context.thread_0.numVecPredRegReads            0                       # Number of times the predicate registers were read (Count)
system.cpu3.exec_context.thread_0.numVecPredRegWrites            0                       # Number of times the predicate registers were written (Count)
system.cpu3.exec_context.thread_0.numCCRegReads      2671009                       # Number of times the CC registers were read (Count)
system.cpu3.exec_context.thread_0.numCCRegWrites      6848826                       # Number of times the CC registers were written (Count)
system.cpu3.exec_context.thread_0.numMemRefs      2621679                       # Number of memory refs (Count)
system.cpu3.exec_context.thread_0.numLoadInsts      2097337                       # Number of load instructions (Count)
system.cpu3.exec_context.thread_0.numStoreInsts       524342                       # Number of store instructions (Count)
system.cpu3.exec_context.thread_0.numIdleCycles 54399802.632680                       # Number of idle cycles (Cycle)
system.cpu3.exec_context.thread_0.numBusyCycles 361699661.367320                       # Number of busy cycles (Cycle)
system.cpu3.exec_context.thread_0.notIdleFraction     0.869263                       # Percentage of non-idle cycles (Ratio)
system.cpu3.exec_context.thread_0.idleFraction     0.130737                       # Percentage of idle cycles (Ratio)
system.cpu3.exec_context.thread_0.numBranches       532575                       # Number of branches fetched (Count)
system.cpu3.exec_context.thread_0.statExecutedInstType::No_OpClass         4130      0.03%      0.03% # Class of executed instruction. (Count)
system.cpu3.exec_context.thread_0.statExecutedInstType::IntAlu     10531437     71.50%     71.52% # Class of executed instruction. (Count)
system.cpu3.exec_context.thread_0.statExecutedInstType::IntMult      1572865     10.68%     82.20% # Class of executed instruction. (Count)
system.cpu3.exec_context.thread_0.statExecutedInstType::IntDiv            7      0.00%     82.20% # Class of executed instruction. (Count)
system.cpu3.exec_context.thread_0.statExecutedInstType::FloatAdd            0      0.00%     82.20% # Class of executed instruction. (Count)
system.cpu3.exec_context.thread_0.statExecutedInstType::FloatCmp            0      0.00%     82.20% # Class of executed instruction. (Count)
system.cpu3.exec_context.thread_0.statExecutedInstType::FloatCvt            0      0.00%     82.20% # Class of executed instruction. (Count)
system.cpu3.exec_context.thread_0.statExecutedInstType::FloatMult            0      0.00%     82.20% # Class of executed instruction. (Count)
system.cpu3.exec_context.thread_0.statExecutedInstType::FloatMultAcc            0      0.00%     82.20% # Class of executed instruction. (Count)
system.cpu3.exec_context.thread_0.statExecutedInstType::FloatDiv            0      0.00%     82.20% # Class of executed instruction. (Count)
system.cpu3.exec_context.thread_0.statExecutedInstType::FloatMisc            0      0.00%     82.20% # Class of executed instruction. (Count)
system.cpu3.exec_context.thread_0.statExecutedInstType::FloatSqrt            0      0.00%     82.20% # Class of executed instruction. (Count)
system.cpu3.exec_context.thread_0.statExecutedInstType::SimdAdd            0      0.00%     82.20% # Class of executed instruction. (Count)
system.cpu3.exec_context.thread_0.statExecutedInstType::SimdAddAcc            0      0.00%     82.20% # Class of executed instruction. (Count)
system.cpu3.exec_context.thread_0.statExecutedInstType::SimdAlu            0      0.00%     82.20% # Class of executed instruction. (Count)
system.cpu3.exec_context.thread_0.statExecutedInstType::SimdCmp            0      0.00%     82.20% # Class of executed instruction. (Count)
system.cpu3.exec_context.thread_0.statExecutedInstType::SimdCvt            0      0.00%     82.20% # Class of executed instruction. (Count)
system.cpu3.exec_context.thread_0.statExecutedInstType::SimdMisc            0      0.00%     82.20% # Class of executed instruction. (Count)
system.cpu3.exec_context.thread_0.statExecutedInstType::SimdMult            0      0.00%     82.20% # Class of executed instruction. (Count)
system.cpu3.exec_context.thread_0.statExecutedInstType::SimdMultAcc            0      0.00%     82.20% # Class of executed instruction. (Count)
system.cpu3.exec_context.thread_0.statExecutedInstType::SimdShift            0      0.00%     82.20% # Class of executed instruction. (Count)
system.cpu3.exec_context.thread_0.statExecutedInstType::SimdShiftAcc            0      0.00%     82.20% # Class of executed instruction. (Count)
system.cpu3.exec_context.thread_0.statExecutedInstType::SimdDiv            0      0.00%     82.20% # Class of executed instruction. (Count)
system.cpu3.exec_context.thread_0.statExecutedInstType::SimdSqrt            0      0.00%     82.20% # Class of executed instruction. (Count)
system.cpu3.exec_context.thread_0.statExecutedInstType::SimdFloatAdd            0      0.00%     82.20% # Class of executed instruction. (Count)
system.cpu3.exec_context.thread_0.statExecutedInstType::SimdFloatAlu            0      0.00%     82.20% # Class of executed instruction. (Count)
system.cpu3.exec_context.thread_0.statExecutedInstType::SimdFloatCmp            0      0.00%     82.20% # Class of executed instruction. (Count)
system.cpu3.exec_context.thread_0.statExecutedInstType::SimdFloatCvt            0      0.00%     82.20% # Class of executed instruction. (Count)
system.cpu3.exec_context.thread_0.statExecutedInstType::SimdFloatDiv            0      0.00%     82.20% # Class of executed instruction. (Count)
system.cpu3.exec_context.thread_0.statExecutedInstType::SimdFloatMisc            0      0.00%     82.20% # Class of executed instruction. (Count)
system.cpu3.exec_context.thread_0.statExecutedInstType::SimdFloatMult            0      0.00%     82.20% # Class of executed instruction. (Count)
system.cpu3.exec_context.thread_0.statExecutedInstType::SimdFloatMultAcc            0      0.00%     82.20% # Class of executed instruction. (Count)
system.cpu3.exec_context.thread_0.statExecutedInstType::SimdFloatSqrt            0      0.00%     82.20% # Class of executed instruction. (Count)
system.cpu3.exec_context.thread_0.statExecutedInstType::SimdReduceAdd            0      0.00%     82.20% # Class of executed instruction. (Count)
system.cpu3.exec_context.thread_0.statExecutedInstType::SimdReduceAlu            0      0.00%     82.20% # Class of executed instruction. (Count)
system.cpu3.exec_context.thread_0.statExecutedInstType::SimdReduceCmp            0      0.00%     82.20% # Class of executed instruction. (Count)
system.cpu3.exec_context.thread_0.statExecutedInstType::SimdFloatReduceAdd            0      0.00%     82.20% # Class of executed instruction. (Count)
system.cpu3.exec_context.thread_0.statExecutedInstType::SimdFloatReduceCmp            0      0.00%     82.20% # Class of executed instruction. (Count)
system.cpu3.exec_context.thread_0.statExecutedInstType::SimdAes            0      0.00%     82.20% # Class of executed instruction. (Count)
system.cpu3.exec_context.thread_0.statExecutedInstType::SimdAesMix            0      0.00%     82.20% # Class of executed instruction. (Count)
system.cpu3.exec_context.thread_0.statExecutedInstType::SimdSha1Hash            0      0.00%     82.20% # Class of executed instruction. (Count)
system.cpu3.exec_context.thread_0.statExecutedInstType::SimdSha1Hash2            0      0.00%     82.20% # Class of executed instruction. (Count)
system.cpu3.exec_context.thread_0.statExecutedInstType::SimdSha256Hash            0      0.00%     82.20% # Class of executed instruction. (Count)
system.cpu3.exec_context.thread_0.statExecutedInstType::SimdSha256Hash2            0      0.00%     82.20% # Class of executed instruction. (Count)
system.cpu3.exec_context.thread_0.statExecutedInstType::SimdShaSigma2            0      0.00%     82.20% # Class of executed instruction. (Count)
system.cpu3.exec_context.thread_0.statExecutedInstType::SimdShaSigma3            0      0.00%     82.20% # Class of executed instruction. (Count)
system.cpu3.exec_context.thread_0.statExecutedInstType::SimdPredAlu            0      0.00%     82.20% # Class of executed instruction. (Count)
system.cpu3.exec_context.thread_0.statExecutedInstType::MemRead      2097337     14.24%     96.44% # Class of executed instruction. (Count)
system.cpu3.exec_context.thread_0.statExecutedInstType::MemWrite       524342      3.56%    100.00% # Class of executed instruction. (Count)
system.cpu3.exec_context.thread_0.statExecutedInstType::FloatMemRead            0      0.00%    100.00% # Class of executed instruction. (Count)
system.cpu3.exec_context.thread_0.statExecutedInstType::FloatMemWrite            0      0.00%    100.00% # Class of executed instruction. (Count)
system.cpu3.exec_context.thread_0.statExecutedInstType::IprAccess            0      0.00%    100.00% # Class of executed instruction. (Count)
system.cpu3.exec_context.thread_0.statExecutedInstType::InstPrefetch            0      0.00%    100.00% # Class of executed instruction. (Count)
system.cpu3.exec_context.thread_0.statExecutedInstType::total     14730118                       # Class of executed instruction. (Count)
system.cpu3.interrupts.clk_domain.clock          8000                       # Clock period in ticks (Tick)
system.cpu3.mmu.dtb.rdAccesses                2097337                       # TLB accesses on read requests (Count)
system.cpu3.mmu.dtb.wrAccesses                 524342                       # TLB accesses on write requests (Count)
system.cpu3.mmu.dtb.rdMisses                       38                       # TLB misses on read requests (Count)
system.cpu3.mmu.dtb.wrMisses                        1                       # TLB misses on write requests (Count)
system.cpu3.mmu.dtb.walker.power_state.pwrStateResidencyTicks::UNDEFINED 236836432500                       # Cumulative time (in ticks) in various power states (Tick)
system.cpu3.mmu.itb.rdAccesses                      0                       # TLB accesses on read requests (Count)
system.cpu3.mmu.itb.wrAccesses               11043501                       # TLB accesses on write requests (Count)
system.cpu3.mmu.itb.rdMisses                        0                       # TLB misses on read requests (Count)
system.cpu3.mmu.itb.wrMisses                       12                       # TLB misses on write requests (Count)
system.cpu3.mmu.itb.walker.power_state.pwrStateResidencyTicks::UNDEFINED 236836432500                       # Cumulative time (in ticks) in various power states (Tick)
system.cpu3.power_state.pwrStateResidencyTicks::ON 236836432500                       # Cumulative time (in ticks) in various power states (Tick)
system.cpu3.thread_0.numInsts                       0                       # Number of Instructions committed (Count)
system.cpu3.thread_0.numOps                         0                       # Number of Ops committed (Count)
system.cpu3.thread_0.numMemRefs                     0                       # Number of Memory References (Count)
system.cpu_clk_domain.clock                       500                       # Clock period in ticks (Tick)
system.cpu_voltage_domain.voltage                   1                       # Voltage in Volts (Volt)
system.mem_ctrls.avgPriority_ruby.dir_cntrl0::samples    469296.00                       # Average QoS priority value for accepted requests
system.mem_ctrls.priorityMinLatency      0.000000018750                       # per QoS priority minimum request to response latency (Second)
system.mem_ctrls.priorityMaxLatency      0.004608048250                       # per QoS priority maximum request to response latency (Second)
system.mem_ctrls.numReadWriteTurnArounds        18051                       # Number of turnarounds from READ to WRITE (Count)
system.mem_ctrls.numWriteReadTurnArounds        18051                       # Number of turnarounds from WRITE to READ (Count)
system.mem_ctrls.numStayReadState              821340                       # Number of times bus staying in READ state (Count)
system.mem_ctrls.numStayWriteState             295498                       # Number of times bus staying in WRITE state (Count)
system.mem_ctrls.readReqs                      461945                       # Number of read requests accepted (Count)
system.mem_ctrls.writeReqs                     460768                       # Number of write requests accepted (Count)
system.mem_ctrls.readBursts                    461945                       # Number of controller read bursts, including those serviced by the write queue (Count)
system.mem_ctrls.writeBursts                   460768                       # Number of controller write bursts, including those merged in the write queue (Count)
system.mem_ctrls.servicedByWrQ                 305935                       # Number of controller read bursts serviced by the write queue (Count)
system.mem_ctrls.mergedWrBursts                147482                       # Number of controller write bursts merged with an existing one (Count)
system.mem_ctrls.neitherReadNorWriteReqs            0                       # Number of requests that are neither read nor write (Count)
system.mem_ctrls.avgRdQLen                       1.01                       # Average read queue length when enqueuing ((Count/Tick))
system.mem_ctrls.avgWrQLen                      25.40                       # Average write queue length when enqueuing ((Count/Tick))
system.mem_ctrls.numRdRetry                         0                       # Number of times read queue was full causing retry (Count)
system.mem_ctrls.numWrRetry                         0                       # Number of times write queue was full causing retry (Count)
system.mem_ctrls.readPktSize::0                     0                       # Read request sizes (log2) (Count)
system.mem_ctrls.readPktSize::1                     0                       # Read request sizes (log2) (Count)
system.mem_ctrls.readPktSize::2                     0                       # Read request sizes (log2) (Count)
system.mem_ctrls.readPktSize::3                     0                       # Read request sizes (log2) (Count)
system.mem_ctrls.readPktSize::4                     0                       # Read request sizes (log2) (Count)
system.mem_ctrls.readPktSize::5                     0                       # Read request sizes (log2) (Count)
system.mem_ctrls.readPktSize::6                461945                       # Read request sizes (log2) (Count)
system.mem_ctrls.writePktSize::0                    0                       # Write request sizes (log2) (Count)
system.mem_ctrls.writePktSize::1                    0                       # Write request sizes (log2) (Count)
system.mem_ctrls.writePktSize::2                    0                       # Write request sizes (log2) (Count)
system.mem_ctrls.writePktSize::3                    0                       # Write request sizes (log2) (Count)
system.mem_ctrls.writePktSize::4                    0                       # Write request sizes (log2) (Count)
system.mem_ctrls.writePktSize::5                    0                       # Write request sizes (log2) (Count)
system.mem_ctrls.writePktSize::6               460768                       # Write request sizes (log2) (Count)
system.mem_ctrls.rdQLenPdf::0                  154097                       # What read queue length does an incoming req see (Count)
system.mem_ctrls.rdQLenPdf::1                    1890                       # What read queue length does an incoming req see (Count)
system.mem_ctrls.rdQLenPdf::2                      23                       # What read queue length does an incoming req see (Count)
system.mem_ctrls.rdQLenPdf::3                       0                       # What read queue length does an incoming req see (Count)
system.mem_ctrls.rdQLenPdf::4                       0                       # What read queue length does an incoming req see (Count)
system.mem_ctrls.rdQLenPdf::5                       0                       # What read queue length does an incoming req see (Count)
system.mem_ctrls.rdQLenPdf::6                       0                       # What read queue length does an incoming req see (Count)
system.mem_ctrls.rdQLenPdf::7                       0                       # What read queue length does an incoming req see (Count)
system.mem_ctrls.rdQLenPdf::8                       0                       # What read queue length does an incoming req see (Count)
system.mem_ctrls.rdQLenPdf::9                       0                       # What read queue length does an incoming req see (Count)
system.mem_ctrls.rdQLenPdf::10                      0                       # What read queue length does an incoming req see (Count)
system.mem_ctrls.rdQLenPdf::11                      0                       # What read queue length does an incoming req see (Count)
system.mem_ctrls.rdQLenPdf::12                      0                       # What read queue length does an incoming req see (Count)
system.mem_ctrls.rdQLenPdf::13                      0                       # What read queue length does an incoming req see (Count)
system.mem_ctrls.rdQLenPdf::14                      0                       # What read queue length does an incoming req see (Count)
system.mem_ctrls.rdQLenPdf::15                      0                       # What read queue length does an incoming req see (Count)
system.mem_ctrls.rdQLenPdf::16                      0                       # What read queue length does an incoming req see (Count)
system.mem_ctrls.rdQLenPdf::17                      0                       # What read queue length does an incoming req see (Count)
system.mem_ctrls.rdQLenPdf::18                      0                       # What read queue length does an incoming req see (Count)
system.mem_ctrls.rdQLenPdf::19                      0                       # What read queue length does an incoming req see (Count)
system.mem_ctrls.rdQLenPdf::20                      0                       # What read queue length does an incoming req see (Count)
system.mem_ctrls.rdQLenPdf::21                      0                       # What read queue length does an incoming req see (Count)
system.mem_ctrls.rdQLenPdf::22                      0                       # What read queue length does an incoming req see (Count)
system.mem_ctrls.rdQLenPdf::23                      0                       # What read queue length does an incoming req see (Count)
system.mem_ctrls.rdQLenPdf::24                      0                       # What read queue length does an incoming req see (Count)
system.mem_ctrls.rdQLenPdf::25                      0                       # What read queue length does an incoming req see (Count)
system.mem_ctrls.rdQLenPdf::26                      0                       # What read queue length does an incoming req see (Count)
system.mem_ctrls.rdQLenPdf::27                      0                       # What read queue length does an incoming req see (Count)
system.mem_ctrls.rdQLenPdf::28                      0                       # What read queue length does an incoming req see (Count)
system.mem_ctrls.rdQLenPdf::29                      0                       # What read queue length does an incoming req see (Count)
system.mem_ctrls.rdQLenPdf::30                      0                       # What read queue length does an incoming req see (Count)
system.mem_ctrls.rdQLenPdf::31                      0                       # What read queue length does an incoming req see (Count)
system.mem_ctrls.wrQLenPdf::0                       1                       # What write queue length does an incoming req see (Count)
system.mem_ctrls.wrQLenPdf::1                       1                       # What write queue length does an incoming req see (Count)
system.mem_ctrls.wrQLenPdf::2                       1                       # What write queue length does an incoming req see (Count)
system.mem_ctrls.wrQLenPdf::3                       1                       # What write queue length does an incoming req see (Count)
system.mem_ctrls.wrQLenPdf::4                       1                       # What write queue length does an incoming req see (Count)
system.mem_ctrls.wrQLenPdf::5                       1                       # What write queue length does an incoming req see (Count)
system.mem_ctrls.wrQLenPdf::6                       1                       # What write queue length does an incoming req see (Count)
system.mem_ctrls.wrQLenPdf::7                       1                       # What write queue length does an incoming req see (Count)
system.mem_ctrls.wrQLenPdf::8                       1                       # What write queue length does an incoming req see (Count)
system.mem_ctrls.wrQLenPdf::9                       1                       # What write queue length does an incoming req see (Count)
system.mem_ctrls.wrQLenPdf::10                      1                       # What write queue length does an incoming req see (Count)
system.mem_ctrls.wrQLenPdf::11                      1                       # What write queue length does an incoming req see (Count)
system.mem_ctrls.wrQLenPdf::12                      1                       # What write queue length does an incoming req see (Count)
system.mem_ctrls.wrQLenPdf::13                      1                       # What write queue length does an incoming req see (Count)
system.mem_ctrls.wrQLenPdf::14                      1                       # What write queue length does an incoming req see (Count)
system.mem_ctrls.wrQLenPdf::15                  10843                       # What write queue length does an incoming req see (Count)
system.mem_ctrls.wrQLenPdf::16                  10956                       # What write queue length does an incoming req see (Count)
system.mem_ctrls.wrQLenPdf::17                  17187                       # What write queue length does an incoming req see (Count)
system.mem_ctrls.wrQLenPdf::18                  19339                       # What write queue length does an incoming req see (Count)
system.mem_ctrls.wrQLenPdf::19                  18559                       # What write queue length does an incoming req see (Count)
system.mem_ctrls.wrQLenPdf::20                  18463                       # What write queue length does an incoming req see (Count)
system.mem_ctrls.wrQLenPdf::21                  18353                       # What write queue length does an incoming req see (Count)
system.mem_ctrls.wrQLenPdf::22                  18213                       # What write queue length does an incoming req see (Count)
system.mem_ctrls.wrQLenPdf::23                  18217                       # What write queue length does an incoming req see (Count)
system.mem_ctrls.wrQLenPdf::24                  18161                       # What write queue length does an incoming req see (Count)
system.mem_ctrls.wrQLenPdf::25                  18139                       # What write queue length does an incoming req see (Count)
system.mem_ctrls.wrQLenPdf::26                  18170                       # What write queue length does an incoming req see (Count)
system.mem_ctrls.wrQLenPdf::27                  18105                       # What write queue length does an incoming req see (Count)
system.mem_ctrls.wrQLenPdf::28                  18096                       # What write queue length does an incoming req see (Count)
system.mem_ctrls.wrQLenPdf::29                  18072                       # What write queue length does an incoming req see (Count)
system.mem_ctrls.wrQLenPdf::30                  18064                       # What write queue length does an incoming req see (Count)
system.mem_ctrls.wrQLenPdf::31                  18052                       # What write queue length does an incoming req see (Count)
system.mem_ctrls.wrQLenPdf::32                  18054                       # What write queue length does an incoming req see (Count)
system.mem_ctrls.wrQLenPdf::33                    131                       # What write queue length does an incoming req see (Count)
system.mem_ctrls.wrQLenPdf::34                     56                       # What write queue length does an incoming req see (Count)
system.mem_ctrls.wrQLenPdf::35                     25                       # What write queue length does an incoming req see (Count)
system.mem_ctrls.wrQLenPdf::36                     12                       # What write queue length does an incoming req see (Count)
system.mem_ctrls.wrQLenPdf::37                      4                       # What write queue length does an incoming req see (Count)
system.mem_ctrls.wrQLenPdf::38                      0                       # What write queue length does an incoming req see (Count)
system.mem_ctrls.wrQLenPdf::39                      0                       # What write queue length does an incoming req see (Count)
system.mem_ctrls.wrQLenPdf::40                      0                       # What write queue length does an incoming req see (Count)
system.mem_ctrls.wrQLenPdf::41                      0                       # What write queue length does an incoming req see (Count)
system.mem_ctrls.wrQLenPdf::42                      0                       # What write queue length does an incoming req see (Count)
system.mem_ctrls.wrQLenPdf::43                      0                       # What write queue length does an incoming req see (Count)
system.mem_ctrls.wrQLenPdf::44                      0                       # What write queue length does an incoming req see (Count)
system.mem_ctrls.wrQLenPdf::45                      0                       # What write queue length does an incoming req see (Count)
system.mem_ctrls.wrQLenPdf::46                      0                       # What write queue length does an incoming req see (Count)
system.mem_ctrls.wrQLenPdf::47                      0                       # What write queue length does an incoming req see (Count)
system.mem_ctrls.wrQLenPdf::48                      0                       # What write queue length does an incoming req see (Count)
system.mem_ctrls.wrQLenPdf::49                      0                       # What write queue length does an incoming req see (Count)
system.mem_ctrls.wrQLenPdf::50                      0                       # What write queue length does an incoming req see (Count)
system.mem_ctrls.wrQLenPdf::51                      0                       # What write queue length does an incoming req see (Count)
system.mem_ctrls.wrQLenPdf::52                      0                       # What write queue length does an incoming req see (Count)
system.mem_ctrls.wrQLenPdf::53                      0                       # What write queue length does an incoming req see (Count)
system.mem_ctrls.wrQLenPdf::54                      0                       # What write queue length does an incoming req see (Count)
system.mem_ctrls.wrQLenPdf::55                      0                       # What write queue length does an incoming req see (Count)
system.mem_ctrls.wrQLenPdf::56                      0                       # What write queue length does an incoming req see (Count)
system.mem_ctrls.wrQLenPdf::57                      0                       # What write queue length does an incoming req see (Count)
system.mem_ctrls.wrQLenPdf::58                      0                       # What write queue length does an incoming req see (Count)
system.mem_ctrls.wrQLenPdf::59                      0                       # What write queue length does an incoming req see (Count)
system.mem_ctrls.wrQLenPdf::60                      0                       # What write queue length does an incoming req see (Count)
system.mem_ctrls.wrQLenPdf::61                      0                       # What write queue length does an incoming req see (Count)
system.mem_ctrls.wrQLenPdf::62                      0                       # What write queue length does an incoming req see (Count)
system.mem_ctrls.wrQLenPdf::63                      0                       # What write queue length does an incoming req see (Count)
system.mem_ctrls.rdPerTurnAround::samples        18051                       # Reads before turning the bus around for writes (Count)
system.mem_ctrls.rdPerTurnAround::mean       8.642291                       # Reads before turning the bus around for writes (Count)
system.mem_ctrls.rdPerTurnAround::stdev      7.034050                       # Reads before turning the bus around for writes (Count)
system.mem_ctrls.rdPerTurnAround::0-31          18020     99.83%     99.83% # Reads before turning the bus around for writes (Count)
system.mem_ctrls.rdPerTurnAround::32-63            19      0.11%     99.93% # Reads before turning the bus around for writes (Count)
system.mem_ctrls.rdPerTurnAround::64-95             4      0.02%     99.96% # Reads before turning the bus around for writes (Count)
system.mem_ctrls.rdPerTurnAround::96-127            4      0.02%     99.98% # Reads before turning the bus around for writes (Count)
system.mem_ctrls.rdPerTurnAround::128-159            1      0.01%     99.98% # Reads before turning the bus around for writes (Count)
system.mem_ctrls.rdPerTurnAround::192-223            1      0.01%     99.99% # Reads before turning the bus around for writes (Count)
system.mem_ctrls.rdPerTurnAround::256-287            1      0.01%     99.99% # Reads before turning the bus around for writes (Count)
system.mem_ctrls.rdPerTurnAround::512-543            1      0.01%    100.00% # Reads before turning the bus around for writes (Count)
system.mem_ctrls.rdPerTurnAround::total         18051                       # Reads before turning the bus around for writes (Count)
system.mem_ctrls.wrPerTurnAround::samples        18051                       # Writes before turning the bus around for reads (Count)
system.mem_ctrls.wrPerTurnAround::mean      17.354274                       # Writes before turning the bus around for reads (Count)
system.mem_ctrls.wrPerTurnAround::gmean     17.316527                       # Writes before turning the bus around for reads (Count)
system.mem_ctrls.wrPerTurnAround::stdev      1.143582                       # Writes before turning the bus around for reads (Count)
system.mem_ctrls.wrPerTurnAround::16             6926     38.37%     38.37% # Writes before turning the bus around for reads (Count)
system.mem_ctrls.wrPerTurnAround::17              246      1.36%     39.73% # Writes before turning the bus around for reads (Count)
system.mem_ctrls.wrPerTurnAround::18             8660     47.98%     87.71% # Writes before turning the bus around for reads (Count)
system.mem_ctrls.wrPerTurnAround::19             2082     11.53%     99.24% # Writes before turning the bus around for reads (Count)
system.mem_ctrls.wrPerTurnAround::20               91      0.50%     99.75% # Writes before turning the bus around for reads (Count)
system.mem_ctrls.wrPerTurnAround::21               23      0.13%     99.87% # Writes before turning the bus around for reads (Count)
system.mem_ctrls.wrPerTurnAround::22               10      0.06%     99.93% # Writes before turning the bus around for reads (Count)
system.mem_ctrls.wrPerTurnAround::23                9      0.05%     99.98% # Writes before turning the bus around for reads (Count)
system.mem_ctrls.wrPerTurnAround::24                4      0.02%    100.00% # Writes before turning the bus around for reads (Count)
system.mem_ctrls.wrPerTurnAround::total         18051                       # Writes before turning the bus around for reads (Count)
system.mem_ctrls.bytesReadWrQ                19579840                       # Total number of bytes read from write queue (Byte)
system.mem_ctrls.bytesReadSys                29564480                       # Total read bytes from the system interface side (Byte)
system.mem_ctrls.bytesWrittenSys             29489152                       # Total written bytes from the system interface side (Byte)
[...]
system.ruby.network.routers1.port_buffers7.m_stall_time  1817.130028                       # Average number of cycles messages are stalled in this MB (Unspecified)
system.ruby.network.routers1.port_buffers9.m_buf_msgs     0.015116                       # Average number of messages in buffer (Unspecified)
system.ruby.network.routers1.port_buffers9.m_stall_time  6442.246674                       # Average number of cycles messages are stalled in this MB (Unspecified)
system.ruby.network.routers1.power_state.pwrStateResidencyTicks::UNDEFINED 236836432500                       # Cumulative time (in ticks) in various power states (Tick)
system.ruby.network.routers1.throttle00.link_utilization     7.625717                       (Unspecified)
system.ruby.network.routers1.throttle00.msg_count.Response_Data::4      7224200                       (Unspecified)
system.ruby.network.routers1.throttle00.msg_bytes.Response_Data::4    520142400                       (Unspecified)
system.ruby.network.routers1.throttle00.msg_count.Writeback_Control::3      7224105                       (Unspecified)
system.ruby.network.routers1.throttle00.msg_bytes.Writeback_Control::3     57792840                       (Unspecified)
system.ruby.network.routers1.throttle01.link_utilization     7.625637                       (Unspecified)
system.ruby.network.routers1.throttle01.msg_count.Control::2      7224200                       (Unspecified)
system.ruby.network.routers1.throttle01.msg_bytes.Control::2     57793600                       (Unspecified)
system.ruby.network.routers1.throttle01.msg_count.Data::2        99921                       (Unspecified)
system.ruby.network.routers1.throttle01.msg_bytes.Data::2      7194312                       (Unspecified)
system.ruby.network.routers1.throttle01.msg_count.Response_Data::4      7124184                       (Unspecified)
system.ruby.network.routers1.throttle01.msg_bytes.Response_Data::4    512941248                       (Unspecified)
system.ruby.network.routers2.percent_links_utilized     8.100914                       (Unspecified)
system.ruby.network.routers2.msg_count.Control::2      7674388                       (Unspecified)
system.ruby.network.routers2.msg_bytes.Control::2     61395104                       (Unspecified)
system.ruby.network.routers2.msg_count.Data::2        44403                       (Unspecified)
system.ruby.network.routers2.msg_bytes.Data::2      3197016                       (Unspecified)
system.ruby.network.routers2.msg_count.Response_Data::4     15304329                       (Unspecified)
system.ruby.network.routers2.msg_bytes.Response_Data::4   1101911688                       (Unspecified)
system.ruby.network.routers2.msg_count.Writeback_Control::3      7674344                       (Unspecified)
system.ruby.network.routers2.msg_bytes.Writeback_Control::3     61394752                       (Unspecified)
system.ruby.network.routers2.port_buffers3.m_buf_msgs     0.016202                       # Average number of messages in buffer (Unspecified)
system.ruby.network.routers2.port_buffers3.m_stall_time  8370.181748                       # Average number of cycles messages are stalled in this MB (Unspecified)
system.ruby.network.routers2.port_buffers4.m_buf_msgs     0.016202                       # Average number of messages in buffer (Unspecified)
system.ruby.network.routers2.port_buffers4.m_stall_time  8242.170678                       # Average number of cycles messages are stalled in this MB (Unspecified)
system.ruby.network.routers2.port_buffers7.m_buf_msgs     0.016969                       # Average number of messages in buffer (Unspecified)
system.ruby.network.routers2.port_buffers7.m_stall_time  1724.825151                       # Average number of cycles messages are stalled in this MB (Unspecified)
system.ruby.network.routers2.port_buffers9.m_buf_msgs     0.016188                       # Average number of messages in buffer (Unspecified)
system.ruby.network.routers2.port_buffers9.m_stall_time  6442.667761                       # Average number of cycles messages are stalled in this MB (Unspecified)
system.ruby.network.routers2.power_state.pwrStateResidencyTicks::UNDEFINED 236836432500                       # Cumulative time (in ticks) in various power states (Tick)
system.ruby.network.routers2.throttle00.link_utilization     8.100932                       (Unspecified)
system.ruby.network.routers2.throttle00.msg_count.Response_Data::4      7674388                       (Unspecified)
system.ruby.network.routers2.throttle00.msg_bytes.Response_Data::4    552555936                       (Unspecified)
system.ruby.network.routers2.throttle00.msg_count.Writeback_Control::3      7674344                       (Unspecified)
system.ruby.network.routers2.throttle00.msg_bytes.Writeback_Control::3     61394752                       (Unspecified)
system.ruby.network.routers2.throttle01.link_utilization     8.100895                       (Unspecified)
system.ruby.network.routers2.throttle01.msg_count.Control::2      7674388                       (Unspecified)
system.ruby.network.routers2.throttle01.msg_bytes.Control::2     61395104                       (Unspecified)
system.ruby.network.routers2.throttle01.msg_count.Data::2        44403                       (Unspecified)
system.ruby.network.routers2.throttle01.msg_bytes.Data::2      3197016                       (Unspecified)
system.ruby.network.routers2.throttle01.msg_count.Response_Data::4      7629941                       (Unspecified)
system.ruby.network.routers2.throttle01.msg_bytes.Response_Data::4    549355752                       (Unspecified)
system.ruby.network.routers3.percent_links_utilized     8.109299                       (Unspecified)
system.ruby.network.routers3.msg_count.Control::2      7682310                       (Unspecified)
system.ruby.network.routers3.msg_bytes.Control::2     61458480                       (Unspecified)
system.ruby.network.routers3.msg_count.Data::2        48451                       (Unspecified)
system.ruby.network.routers3.msg_bytes.Data::2      3488472                       (Unspecified)
system.ruby.network.routers3.msg_count.Response_Data::4     15316169                       (Unspecified)
system.ruby.network.routers3.msg_bytes.Response_Data::4   1102764168                       (Unspecified)
system.ruby.network.routers3.msg_count.Writeback_Control::3      7682310                       (Unspecified)
system.ruby.network.routers3.msg_bytes.Writeback_Control::3     61458480                       (Unspecified)
system.ruby.network.routers3.port_buffers3.m_buf_msgs     0.016219                       # Average number of messages in buffer (Unspecified)
system.ruby.network.routers3.port_buffers3.m_stall_time  8408.501000                       # Average number of cycles messages are stalled in this MB (Unspecified)
system.ruby.network.routers3.port_buffers4.m_buf_msgs     0.016219                       # Average number of messages in buffer (Unspecified)
system.ruby.network.routers3.port_buffers4.m_stall_time  8395.923849                       # Average number of cycles messages are stalled in this MB (Unspecified)
system.ruby.network.routers3.port_buffers7.m_buf_msgs     0.017082                       # Average number of messages in buffer (Unspecified)
system.ruby.network.routers3.port_buffers7.m_stall_time  1748.351957                       # Average number of cycles messages are stalled in this MB (Unspecified)
system.ruby.network.routers3.port_buffers9.m_buf_msgs     0.016194                       # Average number of messages in buffer (Unspecified)
system.ruby.network.routers3.port_buffers9.m_stall_time  6442.272746                       # Average number of cycles messages are stalled in this MB (Unspecified)
system.ruby.network.routers3.power_state.pwrStateResidencyTicks::UNDEFINED 236836432500                       # Cumulative time (in ticks) in various power states (Tick)
system.ruby.network.routers3.throttle00.link_utilization     8.109299                       (Unspecified)
system.ruby.network.routers3.throttle00.msg_count.Response_Data::4      7682310                       (Unspecified)
system.ruby.network.routers3.throttle00.msg_bytes.Response_Data::4    553126320                       (Unspecified)
system.ruby.network.routers3.throttle00.msg_count.Writeback_Control::3      7682310                       (Unspecified)
system.ruby.network.routers3.throttle00.msg_bytes.Writeback_Control::3     61458480                       (Unspecified)
system.ruby.network.routers3.throttle01.link_utilization     8.109299                       (Unspecified)
system.ruby.network.routers3.throttle01.msg_count.Control::2      7682310                       (Unspecified)
system.ruby.network.routers3.throttle01.msg_bytes.Control::2     61458480                       (Unspecified)
system.ruby.network.routers3.throttle01.msg_count.Data::2        48451                       (Unspecified)
system.ruby.network.routers3.throttle01.msg_bytes.Data::2      3488472                       (Unspecified)
system.ruby.network.routers3.throttle01.msg_count.Response_Data::4      7633859                       (Unspecified)
system.ruby.network.routers3.throttle01.msg_bytes.Response_Data::4    549637848                       (Unspecified)
system.ruby.network.routers4.percent_links_utilized     2.856991                       (Unspecified)
system.ruby.network.routers4.msg_count.Control::2     22913876                       (Unspecified)
system.ruby.network.routers4.msg_bytes.Control::2    183311008                       (Unspecified)
system.ruby.network.routers4.msg_count.Data::2       460785                       (Unspecified)
system.ruby.network.routers4.msg_bytes.Data::2     33176520                       (Unspecified)
system.ruby.network.routers4.msg_count.Response_Data::4       461945                       (Unspecified)
system.ruby.network.routers4.msg_bytes.Response_Data::4     33260040                       (Unspecified)
system.ruby.network.routers4.msg_count.Writeback_Control::3     22912716                       (Unspecified)
system.ruby.network.routers4.msg_bytes.Writeback_Control::3    183301728                       (Unspecified)
system.ruby.network.routers4.port_buffers2.m_buf_msgs     0.049348                       # Average number of messages in buffer (Unspecified)
system.ruby.network.routers4.port_buffers2.m_stall_time  3752.399386                       # Average number of cycles messages are stalled in this MB (Unspecified)
system.ruby.network.routers4.port_buffers6.m_buf_msgs     0.048666                       # Average number of messages in buffer (Unspecified)
system.ruby.network.routers4.port_buffers6.m_stall_time  5799.249933                       # Average number of cycles messages are stalled in this MB (Unspecified)
system.ruby.network.routers4.port_buffers7.m_buf_msgs     0.000977                       # Average number of messages in buffer (Unspecified)
system.ruby.network.routers4.port_buffers7.m_stall_time  1000.670301                       # Average number of cycles messages are stalled in this MB (Unspecified)
system.ruby.network.routers4.power_state.pwrStateResidencyTicks::UNDEFINED 236836432500                       # Cumulative time (in ticks) in various power states (Tick)
system.ruby.network.routers4.throttle00.link_utilization     2.856501                       (Unspecified)
system.ruby.network.routers4.throttle00.msg_count.Control::2     22913876                       (Unspecified)
system.ruby.network.routers4.throttle00.msg_bytes.Control::2    183311008                       (Unspecified)
system.ruby.network.routers4.throttle00.msg_count.Data::2       460785                       (Unspecified)
system.ruby.network.routers4.throttle00.msg_bytes.Data::2     33176520                       (Unspecified)
system.ruby.network.routers4.throttle01.link_utilization     2.857481                       (Unspecified)
system.ruby.network.routers4.throttle01.msg_count.Response_Data::4       461945                       (Unspecified)
system.ruby.network.routers4.throttle01.msg_bytes.Response_Data::4     33260040                       (Unspecified)
system.ruby.network.routers4.throttle01.msg_count.Writeback_Control::3     22912716                       (Unspecified)
system.ruby.network.routers4.throttle01.msg_bytes.Writeback_Control::3    183301728                       (Unspecified)
system.ruby.network.routers5.percent_links_utilized     5.408765                       (Unspecified)
system.ruby.network.routers5.msg_count.Control::2     22913876                       (Unspecified)
system.ruby.network.routers5.msg_bytes.Control::2    183311008                       (Unspecified)
system.ruby.network.routers5.msg_count.Data::2       460785                       (Unspecified)
system.ruby.network.routers5.msg_bytes.Data::2     33176520                       (Unspecified)
system.ruby.network.routers5.msg_count.Response_Data::4     22913876                       (Unspecified)
system.ruby.network.routers5.msg_bytes.Response_Data::4   1649799072                       (Unspecified)
system.ruby.network.routers5.msg_count.Writeback_Control::3     22912716                       (Unspecified)
system.ruby.network.routers5.msg_bytes.Writeback_Control::3    183301728                       (Unspecified)
system.ruby.network.routers5.port_buffers13.m_buf_msgs     0.016778                       # Average number of messages in buffer (Unspecified)
system.ruby.network.routers5.port_buffers13.m_stall_time  7379.362831                       # Average number of cycles messages are stalled in this MB (Unspecified)
system.ruby.network.routers5.port_buffers14.m_buf_msgs     0.016202                       # Average number of messages in buffer (Unspecified)
system.ruby.network.routers5.port_buffers14.m_stall_time  7251.348713                       # Average number of cycles messages are stalled in this MB (Unspecified)
system.ruby.network.routers5.port_buffers18.m_buf_msgs     0.016877                       # Average number of messages in buffer (Unspecified)
system.ruby.network.routers5.port_buffers18.m_stall_time  7417.695120                       # Average number of cycles messages are stalled in this MB (Unspecified)
system.ruby.network.routers5.port_buffers19.m_buf_msgs     0.016219                       # Average number of messages in buffer (Unspecified)
system.ruby.network.routers5.port_buffers19.m_stall_time  7405.114714                       # Average number of cycles messages are stalled in this MB (Unspecified)
system.ruby.network.routers5.port_buffers22.m_buf_msgs     0.049620                       # Average number of messages in buffer (Unspecified)
system.ruby.network.routers5.port_buffers22.m_stall_time  2752.399422                       # Average number of cycles messages are stalled in this MB (Unspecified)
system.ruby.network.routers5.port_buffers3.m_buf_msgs     0.000703                       # Average number of messages in buffer (Unspecified)
system.ruby.network.routers5.port_buffers3.m_stall_time  6437.818837                       # Average number of cycles messages are stalled in this MB (Unspecified)
system.ruby.network.routers5.port_buffers4.m_buf_msgs     0.000703                       # Average number of messages in buffer (Unspecified)
system.ruby.network.routers5.port_buffers4.m_stall_time  2216.518619                       # Average number of cycles messages are stalled in this MB (Unspecified)
system.ruby.network.routers5.port_buffers8.m_buf_msgs     0.016546                       # Average number of messages in buffer (Unspecified)
system.ruby.network.routers5.port_buffers8.m_stall_time  7367.859151                       # Average number of cycles messages are stalled in this MB (Unspecified)
system.ruby.network.routers5.port_buffers9.m_buf_msgs     0.015251                       # Average number of messages in buffer (Unspecified)
system.ruby.network.routers5.port_buffers9.m_stall_time  6673.325433                       # Average number of cycles messages are stalled in this MB (Unspecified)
system.ruby.network.routers5.power_state.pwrStateResidencyTicks::UNDEFINED 236836432500                       # Cumulative time (in ticks) in various power states (Tick)
system.ruby.network.routers5.throttle00.link_utilization     0.351377                       (Unspecified)
system.ruby.network.routers5.throttle00.msg_count.Response_Data::4       332978                       (Unspecified)
system.ruby.network.routers5.throttle00.msg_bytes.Response_Data::4     23974416                       (Unspecified)
system.ruby.network.routers5.throttle00.msg_count.Writeback_Control::3       331957                       (Unspecified)
system.ruby.network.routers5.throttle00.msg_bytes.Writeback_Control::3      2655656                       (Unspecified)
system.ruby.network.routers5.throttle01.link_utilization     7.625717                       (Unspecified)
system.ruby.network.routers5.throttle01.msg_count.Response_Data::4      7224200                       (Unspecified)
system.ruby.network.routers5.throttle01.msg_bytes.Response_Data::4    520142400                       (Unspecified)
system.ruby.network.routers5.throttle01.msg_count.Writeback_Control::3      7224105                       (Unspecified)
system.ruby.network.routers5.throttle01.msg_bytes.Writeback_Control::3     57792840                       (Unspecified)
system.ruby.network.routers5.throttle02.link_utilization     8.100932                       (Unspecified)
system.ruby.network.routers5.throttle02.msg_count.Response_Data::4      7674388                       (Unspecified)
system.ruby.network.routers5.throttle02.msg_bytes.Response_Data::4    552555936                       (Unspecified)
system.ruby.network.routers5.throttle02.msg_count.Writeback_Control::3      7674344                       (Unspecified)
system.ruby.network.routers5.throttle02.msg_bytes.Writeback_Control::3     61394752                       (Unspecified)
system.ruby.network.routers5.throttle03.link_utilization     8.109299                       (Unspecified)
system.ruby.network.routers5.throttle03.msg_count.Response_Data::4      7682310                       (Unspecified)
system.ruby.network.routers5.throttle03.msg_bytes.Response_Data::4    553126320                       (Unspecified)
system.ruby.network.routers5.throttle03.msg_count.Writeback_Control::3      7682310                       (Unspecified)
system.ruby.network.routers5.throttle03.msg_bytes.Writeback_Control::3     61458480                       (Unspecified)
system.ruby.network.routers5.throttle04.link_utilization     2.856501                       (Unspecified)
system.ruby.network.routers5.throttle04.msg_count.Control::2     22913876                       (Unspecified)
system.ruby.network.routers5.throttle04.msg_bytes.Control::2    183311008                       (Unspecified)
system.ruby.network.routers5.throttle04.msg_count.Data::2       460785                       (Unspecified)
system.ruby.network.routers5.throttle04.msg_bytes.Data::2     33176520                       (Unspecified)
system.ruby.power_state.pwrStateResidencyTicks::UNDEFINED 236836432500                       # Cumulative time (in ticks) in various power states (Tick)
system.sys_port_proxy.power_state.pwrStateResidencyTicks::UNDEFINED 236836432500                       # Cumulative time (in ticks) in various power states (Tick)
system.voltage_domain.voltage                       1                       # Voltage in Volts (Volt)
system.workload.inst.arm                            0                       # number of arm instructions executed (Count)
system.workload.inst.quiesce                        0                       # number of quiesce instructions executed (Count)

---------- End Simulation Statistics   ----------
