
---------- Begin Simulation Statistics ----------
simSeconds                                   5.062904                       # Number of seconds simulated (Second)
simTicks                                 5062904008000                       # Number of ticks simulated (Tick)
finalTick                                5062904008000                       # Number of ticks from beginning of simulation (restored from checkpoints and never reset) (Tick)
simFreq                                  1000000000000                       # The number of ticks per simulated second ((Tick/Second))
hostSeconds                                   2990.10                       # Real time elapsed on the host (Second)
hostTickRate                               1693223691                       # The number of ticks simulated per host second (ticks/s) ((Tick/Second))
hostMemory                                    2138440                       # Number of bytes of host memory used (Byte)
simInsts                                    327307997                       # Number of instructions simulated (Count)
simOps                                      785384581                       # Number of ops (including micro ops) simulated (Count)
hostInstRate                                   109424                       # Simulator instruction rate (inst/s) ((Count/Second))
hostOpRate                                     262566                       # Simulator op (including micro ops) rate (op/s) ((Count/Second))
system.clk_domain.clock                          1000                       # Clock period in ticks (Tick)
system.cpu0.numCycles                     10125187076                       # Number of cpu cycles simulated (Cycle)
system.cpu0.numWorkItemsStarted                     0                       # Number of work items this cpu started (Count)
system.cpu0.numWorkItemsCompleted                   0                       # Number of work items this cpu completed (Count)
system.cpu0.exec_context.thread_0.numInsts    211609586                       # Number of instructions committed (Count)
system.cpu0.exec_context.thread_0.numOps    556776671                       # Number of ops (including micro ops) committed (Count)
system.cpu0.exec_context.thread_0.numIntAluAccesses    498342444                       # Number of integer alu accesses (Count)
system.cpu0.exec_context.thread_0.numFpAluAccesses        26673                       # Number of float alu accesses (Count)
system.cpu0.exec_context.thread_0.numVecAluAccesses            0                       # Number of vector alu accesses (Count)
system.cpu0.exec_context.thread_0.numCallsReturns      3045052                       # Number of times a function call or return occured (Count)
system.cpu0.exec_context.thread_0.numCondCtrlInsts     70459860                       # Number of instructions that are conditional controls (Count)
system.cpu0.exec_context.thread_0.numIntInsts    498342444                       # Number of integer instructions (Count)
system.cpu0.exec_context.thread_0.numFpInsts        26673                       # Number of float instructions (Count)
system.cpu0.exec_context.thread_0.numVecInsts            0                       # Number of vector instructions (Count)
system.cpu0.exec_context.thread_0.numIntRegReads    821531996                       # Number of times the integer registers were read (Count)
system.cpu0.exec_context.thread_0.numIntRegWrites    413796051                       # Number of times the integer registers were written (Count)
system.cpu0.exec_context.thread_0.numFpRegReads        44968                       # Number of times the floating registers were read (Count)
system.cpu0.exec_context.thread_0.numFpRegWrites        21123                       # Number of times the floating registers were written (Count)
system.cpu0.exec_context.thread_0.numVecRegReads            0                       # Number of times the vector registers were read (Count)
system.cpu0.exec_context.thread_0.numVecRegWrites            0                       # Number of times the vector registers were written (Count)
system.cpu0.exec_context.thread_0.numVecPredRegReads            0                       # Number of times the predicate registers were read (Count)
system.cpu0.exec_context.thread_0.numVecPredRegWrites            0                       # Number of times the predicate registers were written (Count)
system.cpu0.exec_context.thread_0.numCCRegReads    373579472                       # Number of times the CC registers were read (Count)
system.cpu0.exec_context.thread_0.numCCRegWrites    160673690                       # Number of times the CC registers were written (Count)
system.cpu0.exec_context.thread_0.numMemRefs     84770520                       # Number of memory refs (Count)
system.cpu0.exec_context.thread_0.numLoadInsts     62069208                       # Number of load instructions (Count)
system.cpu0.exec_context.thread_0.numStoreInsts     22701312                       # Number of store instructions (Count)
system.cpu0.exec_context.thread_0.numIdleCycles 9233005278.597813                       # Number of idle cycles (Cycle)
system.cpu0.exec_context.thread_0.numBusyCycles 892181797.402187                       # Number of busy cycles (Cycle)
system.cpu0.exec_context.thread_0.notIdleFraction     0.088115                       # Percentage of non-idle cycles (Ratio)
system.cpu0.exec_context.thread_0.idleFraction     0.911885                       # Percentage of idle cycles (Ratio)
system.cpu0.exec_context.thread_0.numBranches     75277686                       # Number of branches fetched (Count)
system.cpu0.exec_context.thread_0.statExecutedInstType::No_OpClass     13732796      2.47%      2.47% # Class of executed instruction. (Count)
system.cpu0.exec_context.thread_0.statExecutedInstType::IntAlu    457894954     82.24%     84.71% # Class of executed instruction. (Count)
system.cpu0.exec_context.thread_0.statExecutedInstType::IntMult       322310      0.06%     84.76% # Class of executed instruction. (Count)
system.cpu0.exec_context.thread_0.statExecutedInstType::IntDiv        41867      0.01%     84.77% # Class of executed instruction. (Count)
system.cpu0.exec_context.thread_0.statExecutedInstType::FloatAdd          570      0.00%     84.77% # Class of executed instruction. (Count)
system.cpu0.exec_context.thread_0.statExecutedInstType::FloatCmp            0      0.00%     84.77% # Class of executed instruction. (Count)
system.cpu0.exec_context.thread_0.statExecutedInstType::FloatCvt           16      0.00%     84.77% # Class of executed instruction. (Count)
system.cpu0.exec_context.thread_0.statExecutedInstType::FloatMult            0      0.00%     84.77% # Class of executed instruction. (Count)
system.cpu0.exec_context.thread_0.statExecutedInstType::FloatMultAcc            0      0.00%     84.77% # Class of executed instruction. (Count)
system.cpu0.exec_context.thread_0.statExecutedInstType::FloatDiv            0      0.00%     84.77% # Class of executed instruction. (Count)
system.cpu0.exec_context.thread_0.statExecutedInstType::FloatMisc            0      0.00%     84.77% # Class of executed instruction. (Count)
system.cpu0.exec_context.thread_0.statExecutedInstType::FloatSqrt            0      0.00%     84.77% # Class of executed instruction. (Count)
system.cpu0.exec_context.thread_0.statExecutedInstType::SimdAdd          782      0.00%     84.77% # Class of executed instruction. (Count)
system.cpu0.exec_context.thread_0.statExecutedInstType::SimdAddAcc            0      0.00%     84.77% # Class of executed instruction. (Count)
system.cpu0.exec_context.thread_0.statExecutedInstType::SimdAlu         2292      0.00%     84.77% # Class of executed instruction. (Count)
system.cpu0.exec_context.thread_0.statExecutedInstType::SimdCmp            0      0.00%     84.77% # Class of executed instruction. (Count)
system.cpu0.exec_context.thread_0.statExecutedInstType::SimdCvt         6156      0.00%     84.77% # Class of executed instruction. (Count)
system.cpu0.exec_context.thread_0.statExecutedInstType::SimdMisc         8979      0.00%     84.78% # Class of executed instruction. (Count)
system.cpu0.exec_context.thread_0.statExecutedInstType::SimdMult            0      0.00%     84.78% # Class of executed instruction. (Count)
system.cpu0.exec_context.thread_0.statExecutedInstType::SimdMultAcc            0      0.00%     84.78% # Class of executed instruction. (Count)
system.cpu0.exec_context.thread_0.statExecutedInstType::SimdShift          379      0.00%     84.78% # Class of executed instruction. (Count)
system.cpu0.exec_context.thread_0.statExecutedInstType::SimdShiftAcc            0      0.00%     84.78% # Class of executed instruction. (Count)
system.cpu0.exec_context.thread_0.statExecutedInstType::SimdDiv            0      0.00%     84.78% # Class of executed instruction. (Count)
system.cpu0.exec_context.thread_0.statExecutedInstType::SimdSqrt            0      0.00%     84.78% # Class of executed instruction. (Count)
system.cpu0.exec_context.thread_0.statExecutedInstType::SimdFloatAdd            0      0.00%     84.78% # Class of executed instruction. (Count)
system.cpu0.exec_context.thread_0.statExecutedInstType::SimdFloatAlu            0      0.00%     84.78% # Class of executed instruction. (Count)
system.cpu0.exec_context.thread_0.statExecutedInstType::SimdFloatCmp            0      0.00%     84.78% # Class of executed instruction. (Count)
system.cpu0.exec_context.thread_0.statExecutedInstType::SimdFloatCvt            0      0.00%     84.78% # Class of executed instruction. (Count)
system.cpu0.exec_context.thread_0.statExecutedInstType::SimdFloatDiv            0      0.00%     84.78% # Class of executed instruction. (Count)
system.cpu0.exec_context.thread_0.statExecutedInstType::SimdFloatMisc            0      0.00%     84.78% # Class of executed instruction. (Count)
system.cpu0.exec_context.thread_0.statExecutedInstType::SimdFloatMult            0      0.00%     84.78% # Class of executed instruction. (Count)
system.cpu0.exec_context.thread_0.statExecutedInstType::SimdFloatMultAcc            0      0.00%     84.78% # Class of executed instruction. (Count)
system.cpu0.exec_context.thread_0.statExecutedInstType::SimdFloatSqrt            0      0.00%     84.78% # Class of executed instruction. (Count)
system.cpu0.exec_context.thread_0.statExecutedInstType::SimdReduceAdd            0      0.00%     84.78% # Class of executed instruction. (Count)
system.cpu0.exec_context.thread_0.statExecutedInstType::SimdReduceAlu            0      0.00%     84.78% # Class of executed instruction. (Count)
system.cpu0.exec_context.thread_0.statExecutedInstType::SimdReduceCmp            0      0.00%     84.78% # Class of executed instruction. (Count)
system.cpu0.exec_context.thread_0.statExecutedInstType::SimdFloatReduceAdd            0      0.00%     84.78% # Class of executed instruction. (Count)
system.cpu0.exec_context.thread_0.statExecutedInstType::SimdFloatReduceCmp            0      0.00%     84.78% # Class of executed instruction. (Count)
system.cpu0.exec_context.thread_0.statExecutedInstType::SimdAes            0      0.00%     84.78% # Class of executed instruction. (Count)
system.cpu0.exec_context.thread_0.statExecutedInstType::SimdAesMix            0      0.00%     84.78% # Class of executed instruction. (Count)
system.cpu0.exec_context.thread_0.statExecutedInstType::SimdSha1Hash            0      0.00%     84.78% # Class of executed instruction. (Count)
system.cpu0.exec_context.thread_0.statExecutedInstType::SimdSha1Hash2            0      0.00%     84.78% # Class of executed instruction. (Count)
system.cpu0.exec_context.thread_0.statExecutedInstType::SimdSha256Hash            0      0.00%     84.78% # Class of executed instruction. (Count)
system.cpu0.exec_context.thread_0.statExecutedInstType::SimdSha256Hash2            0      0.00%     84.78% # Class of executed instruction. (Count)
system.cpu0.exec_context.thread_0.statExecutedInstType::SimdShaSigma2            0      0.00%     84.78% # Class of executed instruction. (Count)
system.cpu0.exec_context.thread_0.statExecutedInstType::SimdShaSigma3            0      0.00%     84.78% # Class of executed instruction. (Count)
system.cpu0.exec_context.thread_0.statExecutedInstType::SimdPredAlu            0      0.00%     84.78% # Class of executed instruction. (Count)
system.cpu0.exec_context.thread_0.statExecutedInstType::MemRead     62060119     11.15%     95.92% # Class of executed instruction. (Count)
system.cpu0.exec_context.thread_0.statExecutedInstType::MemWrite     22701165      4.08%    100.00% # Class of executed instruction. (Count)
system.cpu0.exec_context.thread_0.statExecutedInstType::FloatMemRead         4577      0.00%    100.00% # Class of executed instruction. (Count)
system.cpu0.exec_context.thread_0.statExecutedInstType::FloatMemWrite          147      0.00%    100.00% # Class of executed instruction. (Count)
system.cpu0.exec_context.thread_0.statExecutedInstType::IprAccess            0      0.00%    100.00% # Class of executed instruction. (Count)
system.cpu0.exec_context.thread_0.statExecutedInstType::InstPrefetch            0      0.00%    100.00% # Class of executed instruction. (Count)
system.cpu0.exec_context.thread_0.statExecutedInstType::total    556777109                       # Class of executed instruction. (Count)
system.cpu0.interrupts.clk_domain.clock          8000                       # Clock period in ticks (Tick)
system.cpu0.mmu.dtb.rdAccesses               61911618                       # TLB accesses on read requests (Count)
system.cpu0.mmu.dtb.wrAccesses               22682158                       # TLB accesses on write requests (Count)
system.cpu0.mmu.dtb.rdMisses                      819                       # TLB misses on read requests (Count)
system.cpu0.mmu.dtb.wrMisses                      171                       # TLB misses on write requests (Count)
system.cpu0.mmu.dtb.walker.power_state.pwrStateResidencyTicks::UNDEFINED 5062904008000                       # Cumulative time (in ticks) in various power states (Tick)
system.cpu0.mmu.itb.rdAccesses                      0                       # TLB accesses on read requests (Count)
system.cpu0.mmu.itb.wrAccesses              279972432                       # TLB accesses on write requests (Count)
system.cpu0.mmu.itb.rdMisses                        0                       # TLB misses on read requests (Count)
system.cpu0.mmu.itb.wrMisses                      931                       # TLB misses on write requests (Count)
system.cpu0.mmu.itb.walker.power_state.pwrStateResidencyTicks::UNDEFINED 5062904008000                       # Cumulative time (in ticks) in various power states (Tick)
system.cpu0.power_state.numTransitions          24739                       # Number of power state transitions (Count)
system.cpu0.power_state.ticksClkGated::samples        12321                       # Distribution of time spent in the clock gated state
system.cpu0.power_state.ticksClkGated::mean 374708688.597192                       # Distribution of time spent in the clock gated state
system.cpu0.power_state.ticksClkGated::stdev 1131297505.525487                       # Distribution of time spent in the clock gated state
system.cpu0.power_state.ticksClkGated::1000-5e+10        12321    100.00%    100.00% # Distribution of time spent in the clock gated state
system.cpu0.power_state.ticksClkGated::min_value       287001                       # Distribution of time spent in the clock gated state
system.cpu0.power_state.ticksClkGated::max_value   3987603500                       # Distribution of time spent in the clock gated state
system.cpu0.power_state.ticksClkGated::total        12321                       # Distribution of time spent in the clock gated state
system.cpu0.power_state.pwrStateResidencyTicks::ON 446118255794                       # Cumulative time (in ticks) in various power states (Tick)
system.cpu0.power_state.pwrStateResidencyTicks::CLK_GATED 4616785752206                       # Cumulative time (in ticks) in various power states (Tick)
system.cpu0.thread_0.numInsts                       0                       # Number of Instructions committed (Count)
system.cpu0.thread_0.numOps                         0                       # Number of Ops committed (Count)
system.cpu0.thread_0.numMemRefs                     0                       # Number of Memory References (Count)
system.cpu1.numCycles                     10125435241                       # Number of cpu cycles simulated (Cycle)
system.cpu1.numWorkItemsStarted                     0                       # Number of work items this cpu started (Count)
system.cpu1.numWorkItemsCompleted                   0                       # Number of work items this cpu completed (Count)
system.cpu1.exec_context.thread_0.numInsts     17191358                       # Number of instructions committed (Count)
system.cpu1.exec_context.thread_0.numOps     35632579                       # Number of ops (including micro ops) committed (Count)
system.cpu1.exec_context.thread_0.numIntAluAccesses     34694232                       # Number of integer alu accesses (Count)
system.cpu1.exec_context.thread_0.numFpAluAccesses          402                       # Number of float alu accesses (Count)
system.cpu1.exec_context.thread_0.numVecAluAccesses            0                       # Number of vector alu accesses (Count)
system.cpu1.exec_context.thread_0.numCallsReturns       841081                       # Number of times a function call or return occured (Count)
system.cpu1.exec_context.thread_0.numCondCtrlInsts      2624194                       # Number of instructions that are conditional controls (Count)
system.cpu1.exec_context.thread_0.numIntInsts     34694232                       # Number of integer instructions (Count)
system.cpu1.exec_context.thread_0.numFpInsts          402                       # Number of float instructions (Count)
system.cpu1.exec_context.thread_0.numVecInsts            0                       # Number of vector instructions (Count)
system.cpu1.exec_context.thread_0.numIntRegReads     70326380                       # Number of times the integer registers were read (Count)
system.cpu1.exec_context.thread_0.numIntRegWrites     28487632                       # Number of times the integer registers were written (Count)
system.cpu1.exec_context.thread_0.numFpRegReads          653                       # Number of times the floating registers were read (Count)
system.cpu1.exec_context.thread_0.numFpRegWrites          287                       # Number of times the floating registers were written (Count)
system.cpu1.exec_context.thread_0.numVecRegReads            0                       # Number of times the vector registers were read (Count)
system.cpu1.exec_context.thread_0.numVecRegWrites            0                       # Number of times the vector registers were written (Count)
system.cpu1.exec_context.thread_0.numVecPredRegReads            0                       # Number of times the predicate registers were read (Count)
system.cpu1.exec_context.thread_0.numVecPredRegWrites            0                       # Number of times the predicate registers were written (Count)
system.cpu1.exec_context.thread_0.numCCRegReads     21039230                       # Number of times the CC registers were read (Count)
system.cpu1.exec_context.thread_0.numCCRegWrites     11479290                       # Number of times the CC registers were written (Count)
system.cpu1.exec_context.thread_0.numMemRefs      8290481                       # Number of memory refs (Count)
system.cpu1.exec_context.thread_0.numLoadInsts      5202603                       # Number of load instructions (Count)
system.cpu1.exec_context.thread_0.numStoreInsts      3087878                       # Number of store instructions (Count)
system.cpu1.exec_context.thread_0.numIdleCycles 10040721082.811165                       # Number of idle cycles (Cycle)
system.cpu1.exec_context.thread_0.numBusyCycles 84714158.188834                       # Number of busy cycles (Cycle)
system.cpu1.exec_context.thread_0.notIdleFraction     0.008366                       # Percentage of non-idle cycles (Ratio)
system.cpu1.exec_context.thread_0.idleFraction     0.991634                       # Percentage of idle cycles (Ratio)
system.cpu1.exec_context.thread_0.numBranches      3799881                       # Number of branches fetched (Count)
system.cpu1.exec_context.thread_0.statExecutedInstType::No_OpClass       646163      1.81%      1.81% # Class of executed instruction. (Count)
system.cpu1.exec_context.thread_0.statExecutedInstType::IntAlu     26611887     74.68%     76.50% # Class of executed instruction. (Count)
system.cpu1.exec_context.thread_0.statExecutedInstType::IntMult        75555      0.21%     76.71% # Class of executed instruction. (Count)
system.cpu1.exec_context.thread_0.statExecutedInstType::IntDiv        15066      0.04%     76.75% # Class of executed instruction. (Count)
system.cpu1.exec_context.thread_0.statExecutedInstType::FloatAdd            9      0.00%     76.75% # Class of executed instruction. (Count)
system.cpu1.exec_context.thread_0.statExecutedInstType::FloatCmp            0      0.00%     76.75% # Class of executed instruction. (Count)
system.cpu1.exec_context.thread_0.statExecutedInstType::FloatCvt           16      0.00%     76.75% # Class of executed instruction. (Count)
system.cpu1.exec_context.thread_0.statExecutedInstType::FloatMult            0      0.00%     76.75% # Class of executed instruction. (Count)
system.cpu1.exec_context.thread_0.statExecutedInstType::FloatMultAcc            0      0.00%     76.75% # Class of executed instruction. (Count)
system.cpu1.exec_context.thread_0.statExecutedInstType::FloatDiv            0      0.00%     76.75% # Class of executed instruction. (Count)
system.cpu1.exec_context.thread_0.statExecutedInstType::FloatMisc            0      0.00%     76.75% # Class of executed instruction. (Count)
system.cpu1.exec_context.thread_0.statExecutedInstType::FloatSqrt            0      0.00%     76.75% # Class of executed instruction. (Count)
system.cpu1.exec_context.thread_0.statExecutedInstType::SimdAdd           10      0.00%     76.75% # Class of executed instruction. (Count)
system.cpu1.exec_context.thread_0.statExecutedInstType::SimdAddAcc            0      0.00%     76.75% # Class of executed instruction. (Count)
system.cpu1.exec_context.thread_0.statExecutedInstType::SimdAlu           40      0.00%     76.75% # Class of executed instruction. (Count)
system.cpu1.exec_context.thread_0.statExecutedInstType::SimdCmp            0      0.00%     76.75% # Class of executed instruction. (Count)
system.cpu1.exec_context.thread_0.statExecutedInstType::SimdCvt           72      0.00%     76.75% # Class of executed instruction. (Count)
system.cpu1.exec_context.thread_0.statExecutedInstType::SimdMisc          125      0.00%     76.75% # Class of executed instruction. (Count)
system.cpu1.exec_context.thread_0.statExecutedInstType::SimdMult            0      0.00%     76.75% # Class of executed instruction. (Count)
system.cpu1.exec_context.thread_0.statExecutedInstType::SimdMultAcc            0      0.00%     76.75% # Class of executed instruction. (Count)
system.cpu1.exec_context.thread_0.statExecutedInstType::SimdShift            0      0.00%     76.75% # Class of executed instruction. (Count)
system.cpu1.exec_context.thread_0.statExecutedInstType::SimdShiftAcc            0      0.00%     76.75% # Class of executed instruction. (Count)
system.cpu1.exec_context.thread_0.statExecutedInstType::SimdDiv            0      0.00%     76.75% # Class of executed instruction. (Count)
system.cpu1.exec_context.thread_0.statExecutedInstType::SimdSqrt            0      0.00%     76.75% # Class of executed instruction. (Count)
system.cpu1.exec_context.thread_0.statExecutedInstType::SimdFloatAdd            0      0.00%     76.75% # Class of executed instruction. (Count)
system.cpu1.exec_context.thread_0.statExecutedInstType::SimdFloatAlu            0      0.00%     76.75% # Class of executed instruction. (Count)
system.cpu1.exec_context.thread_0.statExecutedInstType::SimdFloatCmp            0      0.00%     76.75% # Class of executed instruction. (Count)
system.cpu1.exec_context.thread_0.statExecutedInstType::SimdFloatCvt            0      0.00%     76.75% # Class of executed instruction. (Count)
system.cpu1.exec_context.thread_0.statExecutedInstType::SimdFloatDiv            0      0.00%     76.75% # Class of executed instruction. (Count)
system.cpu1.exec_context.thread_0.statExecutedInstType::SimdFloatMisc            0      0.00%     76.75% # Class of executed instruction. (Count)
system.cpu1.exec_context.thread_0.statExecutedInstType::SimdFloatMult            0      0.00%     76.75% # Class of executed instruction. (Count)
system.cpu1.exec_context.thread_0.statExecutedInstType::SimdFloatMultAcc            0      0.00%     76.75% # Class of executed instruction. (Count)
system.cpu1.exec_context.thread_0.statExecutedInstType::SimdFloatSqrt            0      0.00%     76.75% # Class of executed instruction. (Count)
system.cpu1.exec_context.thread_0.statExecutedInstType::SimdReduceAdd            0      0.00%     76.75% # Class of executed instruction. (Count)
system.cpu1.exec_context.thread_0.statExecutedInstType::SimdReduceAlu            0      0.00%     76.75% # Class of executed instruction. (Count)
system.cpu1.exec_context.thread_0.statExecutedInstType::SimdReduceCmp            0      0.00%     76.75% # Class of executed instruction. (Count)
system.cpu1.exec_context.thread_0.statExecutedInstType::SimdFloatReduceAdd            0      0.00%     76.75% # Class of executed instruction. (Count)
system.cpu1.exec_context.thread_0.statExecutedInstType::SimdFloatReduceCmp            0      0.00%     76.75% # Class of executed instruction. (Count)
system.cpu1.exec_context.thread_0.statExecutedInstType::SimdAes            0      0.00%     76.75% # Class of executed instruction. (Count)
system.cpu1.exec_context.thread_0.statExecutedInstType::SimdAesMix            0      0.00%     76.75% # Class of executed instruction. (Count)
system.cpu1.exec_context.thread_0.statExecutedInstType::SimdSha1Hash            0      0.00%     76.75% # Class of executed instruction. (Count)
system.cpu1.exec_context.thread_0.statExecutedInstType::SimdSha1Hash2            0      0.00%     76.75% # Class of executed instruction. (Count)
system.cpu1.exec_context.thread_0.statExecutedInstType::SimdSha256Hash            0      0.00%     76.75% # Class of executed instruction. (Count)
system.cpu1.exec_context.thread_0.statExecutedInstType::SimdSha256Hash2            0      0.00%     76.75% # Class of executed instruction. (Count)
system.cpu1.exec_context.thread_0.statExecutedInstType::SimdShaSigma2            0      0.00%     76.75% # Class of executed instruction. (Count)
system.cpu1.exec_context.thread_0.statExecutedInstType::SimdShaSigma3            0      0.00%     76.75% # Class of executed instruction. (Count)
system.cpu1.exec_context.thread_0.statExecutedInstType::SimdPredAlu            0      0.00%     76.75% # Class of executed instruction. (Count)
system.cpu1.exec_context.thread_0.statExecutedInstType::MemRead      5195770     14.58%     91.33% # Class of executed instruction. (Count)
system.cpu1.exec_context.thread_0.statExecutedInstType::MemWrite      3087846      8.67%    100.00% # Class of executed instruction. (Count)
system.cpu1.exec_context.thread_0.statExecutedInstType::FloatMemRead           57      0.00%    100.00% # Class of executed instruction. (Count)
system.cpu1.exec_context.thread_0.statExecutedInstType::FloatMemWrite           32      0.00%    100.00% # Class of executed instruction. (Count)
system.cpu1.exec_context.thread_0.statExecutedInstType::IprAccess            0      0.00%    100.00% # Class of executed instruction. (Count)
system.cpu1.exec_context.thread_0.statExecutedInstType::InstPrefetch            0      0.00%    100.00% # Class of executed instruction. (Count)
system.cpu1.exec_context.thread_0.statExecutedInstType::total     35632648                       # Class of executed instruction. (Count)
system.cpu1.interrupts.clk_domain.clock          8000                       # Clock period in ticks (Tick)
system.cpu1.mmu.dtb.rdAccesses                5210481                       # TLB accesses on read requests (Count)
system.cpu1.mmu.dtb.wrAccesses                3095741                       # TLB accesses on write requests (Count)
system.cpu1.mmu.dtb.rdMisses                       90                       # TLB misses on read requests (Count)
system.cpu1.mmu.dtb.wrMisses                       81                       # TLB misses on write requests (Count)
system.cpu1.mmu.dtb.walker.power_state.pwrStateResidencyTicks::UNDEFINED 5062904008000                       # Cumulative time (in ticks) in various power states (Tick)
system.cpu1.mmu.itb.rdAccesses                      0                       # TLB accesses on read requests (Count)
system.cpu1.mmu.itb.wrAccesses               23008275                       # TLB accesses on write requests (Count)
system.cpu1.mmu.itb.rdMisses                        0                       # TLB misses on read requests (Count)
system.cpu1.mmu.itb.wrMisses                      208                       # TLB misses on write requests (Count)
system.cpu1.mmu.itb.walker.power_state.pwrStateResidencyTicks::UNDEFINED 5062904008000                       # Cumulative time (in ticks) in various power states (Tick)
system.cpu1.power_state.numTransitions           6920                       # Number of power state transitions (Count)
system.cpu1.power_state.ticksClkGated::samples         3459                       # Distribution of time spent in the clock gated state
system.cpu1.power_state.ticksClkGated::mean 1351435888.696155                       # Distribution of time spent in the clock gated state
system.cpu1.power_state.ticksClkGated::stdev 1856188640.598726                       # Distribution of time spent in the clock gated state
system.cpu1.power_state.ticksClkGated::1000-5e+10         3459    100.00%    100.00% # Distribution of time spent in the clock gated state
system.cpu1.power_state.ticksClkGated::min_value       601500                       # Distribution of time spent in the clock gated state
system.cpu1.power_state.ticksClkGated::max_value  10001531000                       # Distribution of time spent in the clock gated state
system.cpu1.power_state.ticksClkGated::total         3459                       # Distribution of time spent in the clock gated state
system.cpu1.power_state.pwrStateResidencyTicks::ON 388287269000                       # Cumulative time (in ticks) in various power states (Tick)
system.cpu1.power_state.pwrStateResidencyTicks::CLK_GATED 4674616739000                       # Cumulative time (in ticks) in various power states (Tick)
system.cpu1.thread_0.numInsts                       0                       # Number of Instructions committed (Count)
system.cpu1.thread_0.numOps                         0                       # Number of Ops committed (Count)
system.cpu1.thread_0.numMemRefs                     0                       # Number of Memory References (Count)
system.cpu10.numCycles                    10124300640                       # Number of cpu cycles simulated (Cycle)
system.cpu10.numWorkItemsStarted                    0                       # Number of work items this cpu started (Count)
system.cpu10.numWorkItemsCompleted                  0                       # Number of work items this cpu completed (Count)
system.cpu10.exec_context.thread_0.numInsts      6245907                       # Number of instructions committed (Count)
system.cpu10.exec_context.thread_0.numOps     12279828                       # Number of ops (including micro ops) committed (Count)
system.cpu10.exec_context.thread_0.numIntAluAccesses     12096484                       # Number of integer alu accesses (Count)
system.cpu10.exec_context.thread_0.numFpAluAccesses           48                       # Number of float alu accesses (Count)
system.cpu10.exec_context.thread_0.numVecAluAccesses            0                       # Number of vector alu accesses (Count)
system.cpu10.exec_context.thread_0.numCallsReturns       286067                       # Number of times a function call or return occured (Count)
system.cpu10.exec_context.thread_0.numCondCtrlInsts       867269                       # Number of instructions that are conditional controls (Count)
system.cpu10.exec_context.thread_0.numIntInsts     12096484                       # Number of integer instructions (Count)
system.cpu10.exec_context.thread_0.numFpInsts           48                       # Number of float instructions (Count)
system.cpu10.exec_context.thread_0.numVecInsts            0                       # Number of vector instructions (Count)
system.cpu10.exec_context.thread_0.numIntRegReads     23504019                       # Number of times the integer registers were read (Count)
system.cpu10.exec_context.thread_0.numIntRegWrites     10101624                       # Number of times the integer registers were written (Count)
system.cpu10.exec_context.thread_0.numFpRegReads           48                       # Number of times the floating registers were read (Count)
system.cpu10.exec_context.thread_0.numFpRegWrites            0                       # Number of times the floating registers were written (Count)
system.cpu10.exec_context.thread_0.numVecRegReads            0                       # Number of times the vector registers were read (Count)
system.cpu10.exec_context.thread_0.numVecRegWrites            0                       # Number of times the vector registers were written (Count)
system.cpu10.exec_context.thread_0.numVecPredRegReads            0                       # Number of times the predicate registers were read (Count)
system.cpu10.exec_context.thread_0.numVecPredRegWrites            0                       # Number of times the predicate registers were written (Count)
system.cpu10.exec_context.thread_0.numCCRegReads      8071295                       # Number of times the CC registers were read (Count)
system.cpu10.exec_context.thread_0.numCCRegWrites      4342627                       # Number of times the CC registers were written (Count)
system.cpu10.exec_context.thread_0.numMemRefs      2503062                       # Number of memory refs (Count)
system.cpu10.exec_context.thread_0.numLoadInsts      1723195                       # Number of load instructions (Count)
system.cpu10.exec_context.thread_0.numStoreInsts       779867                       # Number of store instructions (Count)
system.cpu10.exec_context.thread_0.numIdleCycles 10096837655.879290                       # Number of idle cycles (Cycle)
system.cpu10.exec_context.thread_0.numBusyCycles 27462984.120711                       # Number of busy cycles (Cycle)
system.cpu10.exec_context.thread_0.notIdleFraction     0.002713                       # Percentage of non-idle cycles (Ratio)
system.cpu10.exec_context.thread_0.idleFraction     0.997287                       # Percentage of idle cycles (Ratio)
system.cpu10.exec_context.thread_0.numBranches      1281793                       # Number of branches fetched (Count)
system.cpu10.exec_context.thread_0.statExecutedInstType::No_OpClass        63578      0.52%      0.52% # Class of executed instruction. (Count)
system.cpu10.exec_context.thread_0.statExecutedInstType::IntAlu      9685393     78.87%     79.39% # Class of executed instruction. (Count)
system.cpu10.exec_context.thread_0.statExecutedInstType::IntMult        29829      0.24%     79.63% # Class of executed instruction. (Count)
system.cpu10.exec_context.thread_0.statExecutedInstType::IntDiv          450      0.00%     79.64% # Class of executed instruction. (Count)
system.cpu10.exec_context.thread_0.statExecutedInstType::FloatAdd            0      0.00%     79.64% # Class of executed instruction. (Count)
system.cpu10.exec_context.thread_0.statExecutedInstType::FloatCmp            0      0.00%     79.64% # Class of executed instruction. (Count)
system.cpu10.exec_context.thread_0.statExecutedInstType::FloatCvt           16      0.00%     79.64% # Class of executed instruction. (Count)
system.cpu10.exec_context.thread_0.statExecutedInstType::FloatMult            0      0.00%     79.64% # Class of executed instruction. (Count)
system.cpu10.exec_context.thread_0.statExecutedInstType::FloatMultAcc            0      0.00%     79.64% # Class of executed instruction. (Count)
system.cpu10.exec_context.thread_0.statExecutedInstType::FloatDiv            0      0.00%     79.64% # Class of executed instruction. (Count)
system.cpu10.exec_context.thread_0.statExecutedInstType::FloatMisc            0      0.00%     79.64% # Class of executed instruction. (Count)
system.cpu10.exec_context.thread_0.statExecutedInstType::FloatSqrt            0      0.00%     79.64% # Class of executed instruction. (Count)
system.cpu10.exec_context.thread_0.statExecutedInstType::SimdAdd            0      0.00%     79.64% # Class of executed instruction. (Count)
system.cpu10.exec_context.thread_0.statExecutedInstType::SimdAddAcc            0      0.00%     79.64% # Class of executed instruction. (Count)
system.cpu10.exec_context.thread_0.statExecutedInstType::SimdAlu            0      0.00%     79.64% # Class of executed instruction. (Count)
system.cpu10.exec_context.thread_0.statExecutedInstType::SimdCmp            0      0.00%     79.64% # Class of executed instruction. (Count)
system.cpu10.exec_context.thread_0.statExecutedInstType::SimdCvt            0      0.00%     79.64% # Class of executed instruction. (Count)
system.cpu10.exec_context.thread_0.statExecutedInstType::SimdMisc            0      0.00%     79.64% # Class of executed instruction. (Count)
system.cpu10.exec_context.thread_0.statExecutedInstType::SimdMult            0      0.00%     79.64% # Class of executed instruction. (Count)
system.cpu10.exec_context.thread_0.statExecutedInstType::SimdMultAcc            0      0.00%     79.64% # Class of executed instruction. (Count)
system.cpu10.exec_context.thread_0.statExecutedInstType::SimdShift            0      0.00%     79.64% # Class of executed instruction. (Count)
system.cpu10.exec_context.thread_0.statExecutedInstType::SimdShiftAcc            0      0.00%     79.64% # Class of executed instruction. (Count)
system.cpu10.exec_context.thread_0.statExecutedInstType::SimdDiv            0      0.00%     79.64% # Class of executed instruction. (Count)
system.cpu10.exec_context.thread_0.statExecutedInstType::SimdSqrt            0      0.00%     79.64% # Class of executed instruction. (Count)
system.cpu10.exec_context.thread_0.statExecutedInstType::SimdFloatAdd            0      0.00%     79.64% # Class of executed instruction. (Count)
system.cpu10.exec_context.thread_0.statExecutedInstType::SimdFloatAlu            0      0.00%     79.64% # Class of executed instruction. (Count)
system.cpu10.exec_context.thread_0.statExecutedInstType::SimdFloatCmp            0      0.00%     79.64% # Class of executed instruction. (Count)
system.cpu10.exec_context.thread_0.statExecutedInstType::SimdFloatCvt            0      0.00%     79.64% # Class of executed instruction. (Count)
system.cpu10.exec_context.thread_0.statExecutedInstType::SimdFloatDiv            0      0.00%     79.64% # Class of executed instruction. (Count)
system.cpu10.exec_context.thread_0.statExecutedInstType::SimdFloatMisc            0      0.00%     79.64% # Class of executed instruction. (Count)
system.cpu10.exec_context.thread_0.statExecutedInstType::SimdFloatMult            0      0.00%     79.64% # Class of executed instruction. (Count)
system.cpu10.exec_context.thread_0.statExecutedInstType::SimdFloatMultAcc            0      0.00%     79.64% # Class of executed instruction. (Count)
system.cpu10.exec_context.thread_0.statExecutedInstType::SimdFloatSqrt            0      0.00%     79.64% # Class of executed instruction. (Count)
system.cpu10.exec_context.thread_0.statExecutedInstType::SimdReduceAdd            0      0.00%     79.64% # Class of executed instruction. (Count)
system.cpu10.exec_context.thread_0.statExecutedInstType::SimdReduceAlu            0      0.00%     79.64% # Class of executed instruction. (Count)
system.cpu10.exec_context.thread_0.statExecutedInstType::SimdReduceCmp            0      0.00%     79.64% # Class of executed instruction. (Count)
system.cpu10.exec_context.thread_0.statExecutedInstType::SimdFloatReduceAdd            0      0.00%     79.64% # Class of executed instruction. (Count)
system.cpu10.exec_context.thread_0.statExecutedInstType::SimdFloatReduceCmp            0      0.00%     79.64% # Class of executed instruction. (Count)
system.cpu10.exec_context.thread_0.statExecutedInstType::SimdAes            0      0.00%     79.64% # Class of executed instruction. (Count)
system.cpu10.exec_context.thread_0.statExecutedInstType::SimdAesMix            0      0.00%     79.64% # Class of executed instruction. (Count)
system.cpu10.exec_context.thread_0.statExecutedInstType::SimdSha1Hash            0      0.00%     79.64% # Class of executed instruction. (Count)
system.cpu10.exec_context.thread_0.statExecutedInstType::SimdSha1Hash2            0      0.00%     79.64% # Class of executed instruction. (Count)
system.cpu10.exec_context.thread_0.statExecutedInstType::SimdSha256Hash            0      0.00%     79.64% # Class of executed instruction. (Count)
system.cpu10.exec_context.thread_0.statExecutedInstType::SimdSha256Hash2            0      0.00%     79.64% # Class of executed instruction. (Count)
system.cpu10.exec_context.thread_0.statExecutedInstType::SimdShaSigma2            0      0.00%     79.64% # Class of executed instruction. (Count)
system.cpu10.exec_context.thread_0.statExecutedInstType::SimdShaSigma3            0      0.00%     79.64% # Class of executed instruction. (Count)
system.cpu10.exec_context.thread_0.statExecutedInstType::SimdPredAlu            0      0.00%     79.64% # Class of executed instruction. (Count)
system.cpu10.exec_context.thread_0.statExecutedInstType::MemRead      1720695     14.01%     93.65% # Class of executed instruction. (Count)
system.cpu10.exec_context.thread_0.statExecutedInstType::MemWrite       779835      6.35%    100.00% # Class of executed instruction. (Count)
system.cpu10.exec_context.thread_0.statExecutedInstType::FloatMemRead            0      0.00%    100.00% # Class of executed instruction. (Count)
system.cpu10.exec_context.thread_0.statExecutedInstType::FloatMemWrite           32      0.00%    100.00% # Class of executed instruction. (Count)
system.cpu10.exec_context.thread_0.statExecutedInstType::IprAccess            0      0.00%    100.00% # Class of executed instruction. (Count)
system.cpu10.exec_context.thread_0.statExecutedInstType::InstPrefetch            0      0.00%    100.00% # Class of executed instruction. (Count)
system.cpu10.exec_context.thread_0.statExecutedInstType::total     12279828                       # Class of executed instruction. (Count)
system.cpu10.interrupts.clk_domain.clock         8000                       # Clock period in ticks (Tick)
system.cpu10.mmu.dtb.rdAccesses               1726812                       # TLB accesses on read requests (Count)
system.cpu10.mmu.dtb.wrAccesses                783480                       # TLB accesses on write requests (Count)
system.cpu10.mmu.dtb.rdMisses                      20                       # TLB misses on read requests (Count)
system.cpu10.mmu.dtb.wrMisses                       3                       # TLB misses on write requests (Count)
system.cpu10.mmu.dtb.walker.power_state.pwrStateResidencyTicks::UNDEFINED 5062904008000                       # Cumulative time (in ticks) in various power states (Tick)
system.cpu10.mmu.itb.rdAccesses                     0                       # TLB accesses on read requests (Count)
system.cpu10.mmu.itb.wrAccesses               8542163                       # TLB accesses on write requests (Count)
system.cpu10.mmu.itb.rdMisses                       0                       # TLB misses on read requests (Count)
system.cpu10.mmu.itb.wrMisses                       8                       # TLB misses on write requests (Count)
system.cpu10.mmu.itb.walker.power_state.pwrStateResidencyTicks::UNDEFINED 5062904008000                       # Cumulative time (in ticks) in various power states (Tick)
system.cpu10.power_state.numTransitions          2502                       # Number of power state transitions (Count)
system.cpu10.power_state.ticksClkGated::samples         1252                       # Distribution of time spent in the clock gated state
system.cpu10.power_state.ticksClkGated::mean 3672005298.722045                       # Distribution of time spent in the clock gated state
system.cpu10.power_state.ticksClkGated::stdev 1062856662.759695                       # Distribution of time spent in the clock gated state
system.cpu10.power_state.ticksClkGated::1000-5e+10         1252    100.00%    100.00% # Distribution of time spent in the clock gated state
system.cpu10.power_state.ticksClkGated::min_value       667000                       # Distribution of time spent in the clock gated state
system.cpu10.power_state.ticksClkGated::max_value  10001342000                       # Distribution of time spent in the clock gated state
system.cpu10.power_state.ticksClkGated::total         1252                       # Distribution of time spent in the clock gated state
system.cpu10.power_state.pwrStateResidencyTicks::ON 465553374000                       # Cumulative time (in ticks) in various power states (Tick)
system.cpu10.power_state.pwrStateResidencyTicks::CLK_GATED 4597350634000                       # Cumulative time (in ticks) in various power states (Tick)
system.cpu10.thread_0.numInsts                      0                       # Number of Instructions committed (Count)
system.cpu10.thread_0.numOps                        0                       # Number of Ops committed (Count)
system.cpu10.thread_0.numMemRefs                    0                       # Number of Memory References (Count)
system.cpu11.numCycles                    10123821518                       # Number of cpu cycles simulated (Cycle)
system.cpu11.numWorkItemsStarted                    0                       # Number of work items this cpu started (Count)
system.cpu11.numWorkItemsCompleted                  0                       # Number of work items this cpu completed (Count)
system.cpu11.exec_context.thread_0.numInsts      6241631                       # Number of instructions committed (Count)
system.cpu11.exec_context.thread_0.numOps     12270872                       # Number of ops (including micro ops) committed (Count)
system.cpu11.exec_context.thread_0.numIntAluAccesses     12087711                       # Number of integer alu accesses (Count)
system.cpu11.exec_context.thread_0.numFpAluAccesses           48                       # Number of float alu accesses (Count)
system.cpu11.exec_context.thread_0.numVecAluAccesses            0                       # Number of vector alu accesses (Count)
system.cpu11.exec_context.thread_0.numCallsReturns       285793                       # Number of times a function call or return occured (Count)
system.cpu11.exec_context.thread_0.numCondCtrlInsts       866758                       # Number of instructions that are conditional controls (Count)
system.cpu11.exec_context.thread_0.numIntInsts     12087711                       # Number of integer instructions (Count)
system.cpu11.exec_context.thread_0.numFpInsts           48                       # Number of float instructions (Count)
system.cpu11.exec_context.thread_0.numVecInsts            0                       # Number of vector instructions (Count)
system.cpu11.exec_context.thread_0.numIntRegReads     23486677                       # Number of times the integer registers were read (Count)
system.cpu11.exec_context.thread_0.numIntRegWrites     10094379                       # Number of times the integer registers were written (Count)
system.cpu11.exec_context.thread_0.numFpRegReads           48                       # Number of times the floating registers were read (Count)
system.cpu11.exec_context.thread_0.numFpRegWrites            0                       # Number of times the floating registers were written (Count)
system.cpu11.exec_context.thread_0.numVecRegReads            0                       # Number of times the vector registers were read (Count)
system.cpu11.exec_context.thread_0.numVecRegWrites            0                       # Number of times the vector registers were written (Count)
system.cpu11.exec_context.thread_0.numVecPredRegReads            0                       # Number of times the predicate registers were read (Count)
system.cpu11.exec_context.thread_0.numVecPredRegWrites            0                       # Number of times the predicate registers were written (Count)
system.cpu11.exec_context.thread_0.numCCRegReads      8067041                       # Number of times the CC registers were read (Count)
system.cpu11.exec_context.thread_0.numCCRegWrites      4339880                       # Number of times the CC registers were written (Count)
system.cpu11.exec_context.thread_0.numMemRefs      2500887                       # Number of memory refs (Count)
system.cpu11.exec_context.thread_0.numLoadInsts      1721744                       # Number of load instructions (Count)
system.cpu11.exec_context.thread_0.numStoreInsts       779143                       # Number of store instructions (Count)
system.cpu11.exec_context.thread_0.numIdleCycles 10096136097.437990                       # Number of idle cycles (Cycle)
system.cpu11.exec_context.thread_0.numBusyCycles 27685420.562009                       # Number of busy cycles (Cycle)
system.cpu11.exec_context.thread_0.notIdleFraction     0.002735                       # Percentage of non-idle cycles (Ratio)
system.cpu11.exec_context.thread_0.idleFraction     0.997265                       # Percentage of idle cycles (Ratio)
system.cpu11.exec_context.thread_0.numBranches      1280904                       # Number of branches fetched (Count)
system.cpu11.exec_context.thread_0.statExecutedInstType::No_OpClass        63526      0.52%      0.52% # Class of executed instruction. (Count)
system.cpu11.exec_context.thread_0.statExecutedInstType::IntAlu      9678696     78.88%     79.39% # Class of executed instruction. (Count)
system.cpu11.exec_context.thread_0.statExecutedInstType::IntMult        29800      0.24%     79.64% # Class of executed instruction. (Count)
system.cpu11.exec_context.thread_0.statExecutedInstType::IntDiv          443      0.00%     79.64% # Class of executed instruction. (Count)
system.cpu11.exec_context.thread_0.statExecutedInstType::FloatAdd            0      0.00%     79.64% # Class of executed instruction. (Count)
system.cpu11.exec_context.thread_0.statExecutedInstType::FloatCmp            0      0.00%     79.64% # Class of executed instruction. (Count)
system.cpu11.exec_context.thread_0.statExecutedInstType::FloatCvt           16      0.00%     79.64% # Class of executed instruction. (Count)
system.cpu11.exec_context.thread_0.statExecutedInstType::FloatMult            0      0.00%     79.64% # Class of executed instruction. (Count)
system.cpu11.exec_context.thread_0.statExecutedInstType::FloatMultAcc            0      0.00%     79.64% # Class of executed instruction. (Count)
system.cpu11.exec_context.thread_0.statExecutedInstType::FloatDiv            0      0.00%     79.64% # Class of executed instruction. (Count)
system.cpu11.exec_context.thread_0.statExecutedInstType::FloatMisc            0      0.00%     79.64% # Class of executed instruction. (Count)
system.cpu11.exec_context.thread_0.statExecutedInstType::FloatSqrt            0      0.00%     79.64% # Class of executed instruction. (Count)
system.cpu11.exec_context.thread_0.statExecutedInstType::SimdAdd            0      0.00%     79.64% # Class of executed instruction. (Count)
system.cpu11.exec_context.thread_0.statExecutedInstType::SimdAddAcc            0      0.00%     79.64% # Class of executed instruction. (Count)
system.cpu11.exec_context.thread_0.statExecutedInstType::SimdAlu            0      0.00%     79.64% # Class of executed instruction. (Count)
system.cpu11.exec_context.thread_0.statExecutedInstType::SimdCmp            0      0.00%     79.64% # Class of executed instruction. (Count)
system.cpu11.exec_context.thread_0.statExecutedInstType::SimdCvt            0      0.00%     79.64% # Class of executed instruction. (Count)
system.cpu11.exec_context.thread_0.statExecutedInstType::SimdMisc            0      0.00%     79.64% # Class of executed instruction. (Count)
system.cpu11.exec_context.thread_0.statExecutedInstType::SimdMult            0      0.00%     79.64% # Class of executed instruction. (Count)
system.cpu11.exec_context.thread_0.statExecutedInstType::SimdMultAcc            0      0.00%     79.64% # Class of executed instruction. (Count)
system.cpu11.exec_context.thread_0.statExecutedInstType::SimdShift            0      0.00%     79.64% # Class of executed instruction. (Count)
system.cpu11.exec_context.thread_0.statExecutedInstType::SimdShiftAcc            0      0.00%     79.64% # Class of executed instruction. (Count)
system.cpu11.exec_context.thread_0.statExecutedInstType::SimdDiv            0      0.00%     79.64% # Class of executed instruction. (Count)
system.cpu11.exec_context.thread_0.statExecutedInstType::SimdSqrt            0      0.00%     79.64% # Class of executed instruction. (Count)
system.cpu11.exec_context.thread_0.statExecutedInstType::SimdFloatAdd            0      0.00%     79.64% # Class of executed instruction. (Count)
system.cpu11.exec_context.thread_0.statExecutedInstType::SimdFloatAlu            0      0.00%     79.64% # Class of executed instruction. (Count)
system.cpu11.exec_context.thread_0.statExecutedInstType::SimdFloatCmp            0      0.00%     79.64% # Class of executed instruction. (Count)
system.cpu11.exec_context.thread_0.statExecutedInstType::SimdFloatCvt            0      0.00%     79.64% # Class of executed instruction. (Count)
system.cpu11.exec_context.thread_0.statExecutedInstType::SimdFloatDiv            0      0.00%     79.64% # Class of executed instruction. (Count)
system.cpu11.exec_context.thread_0.statExecutedInstType::SimdFloatMisc            0      0.00%     79.64% # Class of executed instruction. (Count)
system.cpu11.exec_context.thread_0.statExecutedInstType::SimdFloatMult            0      0.00%     79.64% # Class of executed instruction. (Count)
system.cpu11.exec_context.thread_0.statExecutedInstType::SimdFloatMultAcc            0      0.00%     79.64% # Class of executed instruction. (Count)
system.cpu11.exec_context.thread_0.statExecutedInstType::SimdFloatSqrt            0      0.00%     79.64% # Class of executed instruction. (Count)
system.cpu11.exec_context.thread_0.statExecutedInstType::SimdReduceAdd            0      0.00%     79.64% # Class of executed instruction. (Count)
system.cpu11.exec_context.thread_0.statExecutedInstType::SimdReduceAlu            0      0.00%     79.64% # Class of executed instruction. (Count)
system.cpu11.exec_context.thread_0.statExecutedInstType::SimdReduceCmp            0      0.00%     79.64% # Class of executed instruction. (Count)
system.cpu11.exec_context.thread_0.statExecutedInstType::SimdFloatReduceAdd            0      0.00%     79.64% # Class of executed instruction. (Count)
system.cpu11.exec_context.thread_0.statExecutedInstType::SimdFloatReduceCmp            0      0.00%     79.64% # Class of executed instruction. (Count)
system.cpu11.exec_context.thread_0.statExecutedInstType::SimdAes            0      0.00%     79.64% # Class of executed instruction. (Count)
system.cpu11.exec_context.thread_0.statExecutedInstType::SimdAesMix            0      0.00%     79.64% # Class of executed instruction. (Count)
system.cpu11.exec_context.thread_0.statExecutedInstType::SimdSha1Hash            0      0.00%     79.64% # Class of executed instruction. (Count)
system.cpu11.exec_context.thread_0.statExecutedInstType::SimdSha1Hash2            0      0.00%     79.64% # Class of executed instruction. (Count)
system.cpu11.exec_context.thread_0.statExecutedInstType::SimdSha256Hash            0      0.00%     79.64% # Class of executed instruction. (Count)
system.cpu11.exec_context.thread_0.statExecutedInstType::SimdSha256Hash2            0      0.00%     79.64% # Class of executed instruction. (Count)
system.cpu11.exec_context.thread_0.statExecutedInstType::SimdShaSigma2            0      0.00%     79.64% # Class of executed instruction. (Count)
system.cpu11.exec_context.thread_0.statExecutedInstType::SimdShaSigma3            0      0.00%     79.64% # Class of executed instruction. (Count)
system.cpu11.exec_context.thread_0.statExecutedInstType::SimdPredAlu            0      0.00%     79.64% # Class of executed instruction. (Count)
system.cpu11.exec_context.thread_0.statExecutedInstType::MemRead      1719248     14.01%     93.65% # Class of executed instruction. (Count)
system.cpu11.exec_context.thread_0.statExecutedInstType::MemWrite       779111      6.35%    100.00% # Class of executed instruction. (Count)
system.cpu11.exec_context.thread_0.statExecutedInstType::FloatMemRead            0      0.00%    100.00% # Class of executed instruction. (Count)
system.cpu11.exec_context.thread_0.statExecutedInstType::FloatMemWrite           32      0.00%    100.00% # Class of executed instruction. (Count)
system.cpu11.exec_context.thread_0.statExecutedInstType::IprAccess            0      0.00%    100.00% # Class of executed instruction. (Count)
system.cpu11.exec_context.thread_0.statExecutedInstType::InstPrefetch            0      0.00%    100.00% # Class of executed instruction. (Count)
system.cpu11.exec_context.thread_0.statExecutedInstType::total     12270872                       # Class of executed instruction. (Count)
system.cpu11.interrupts.clk_domain.clock         8000                       # Clock period in ticks (Tick)
system.cpu11.mmu.dtb.rdAccesses               1725354                       # TLB accesses on read requests (Count)
system.cpu11.mmu.dtb.wrAccesses                782749                       # TLB accesses on write requests (Count)
system.cpu11.mmu.dtb.rdMisses                      20                       # TLB misses on read requests (Count)
system.cpu11.mmu.dtb.wrMisses                       3                       # TLB misses on write requests (Count)
system.cpu11.mmu.dtb.walker.power_state.pwrStateResidencyTicks::UNDEFINED 5062904008000                       # Cumulative time (in ticks) in various power states (Tick)
system.cpu11.mmu.itb.rdAccesses                     0                       # TLB accesses on read requests (Count)
system.cpu11.mmu.itb.wrAccesses               8536427                       # TLB accesses on write requests (Count)
system.cpu11.mmu.itb.rdMisses                       0                       # TLB misses on read requests (Count)
system.cpu11.mmu.itb.wrMisses                       8                       # TLB misses on write requests (Count)
system.cpu11.mmu.itb.walker.power_state.pwrStateResidencyTicks::UNDEFINED 5062904008000                       # Cumulative time (in ticks) in various power states (Tick)
system.cpu11.power_state.numTransitions          2498                       # Number of power state transitions (Count)
system.cpu11.power_state.ticksClkGated::samples         1250                       # Distribution of time spent in the clock gated state
system.cpu11.power_state.ticksClkGated::mean 3668384347.200000                       # Distribution of time spent in the clock gated state
system.cpu11.power_state.ticksClkGated::stdev 1066695372.128387                       # Distribution of time spent in the clock gated state
system.cpu11.power_state.ticksClkGated::1000-5e+10         1250    100.00%    100.00% # Distribution of time spent in the clock gated state
system.cpu11.power_state.ticksClkGated::min_value       667000                       # Distribution of time spent in the clock gated state
system.cpu11.power_state.ticksClkGated::max_value  10001274000                       # Distribution of time spent in the clock gated state
system.cpu11.power_state.ticksClkGated::total         1250                       # Distribution of time spent in the clock gated state
system.cpu11.power_state.pwrStateResidencyTicks::ON 477423574000                       # Cumulative time (in ticks) in various power states (Tick)
system.cpu11.power_state.pwrStateResidencyTicks::CLK_GATED 4585480434000                       # Cumulative time (in ticks) in various power states (Tick)
system.cpu11.thread_0.numInsts                      0                       # Number of Instructions committed (Count)
system.cpu11.thread_0.numOps                        0                       # Number of Ops committed (Count)
system.cpu11.thread_0.numMemRefs                    0                       # Number of Memory References (Count)
system.cpu12.numCycles                    10123359888                       # Number of cpu cycles simulated (Cycle)
system.cpu12.numWorkItemsStarted                    0                       # Number of work items this cpu started (Count)
system.cpu12.numWorkItemsCompleted                  0                       # Number of work items this cpu completed (Count)
system.cpu12.exec_context.thread_0.numInsts      6237700                       # Number of instructions committed (Count)
system.cpu12.exec_context.thread_0.numOps     12262791                       # Number of ops (including micro ops) committed (Count)
system.cpu12.exec_context.thread_0.numIntAluAccesses     12079700                       # Number of integer alu accesses (Count)
system.cpu12.exec_context.thread_0.numFpAluAccesses           48                       # Number of float alu accesses (Count)
system.cpu12.exec_context.thread_0.numVecAluAccesses            0                       # Number of vector alu accesses (Count)
system.cpu12.exec_context.thread_0.numCallsReturns       285499                       # Number of times a function call or return occured (Count)
system.cpu12.exec_context.thread_0.numCondCtrlInsts       866413                       # Number of instructions that are conditional controls (Count)
system.cpu12.exec_context.thread_0.numIntInsts     12079700                       # Number of integer instructions (Count)
system.cpu12.exec_context.thread_0.numFpInsts           48                       # Number of float instructions (Count)
system.cpu12.exec_context.thread_0.numVecInsts            0                       # Number of vector instructions (Count)
system.cpu12.exec_context.thread_0.numIntRegReads     23470229                       # Number of times the integer registers were read (Count)
system.cpu12.exec_context.thread_0.numIntRegWrites     10087840                       # Number of times the integer registers were written (Count)
system.cpu12.exec_context.thread_0.numFpRegReads           48                       # Number of times the floating registers were read (Count)
system.cpu12.exec_context.thread_0.numFpRegWrites            0                       # Number of times the floating registers were written (Count)
system.cpu12.exec_context.thread_0.numVecRegReads            0                       # Number of times the vector registers were read (Count)
system.cpu12.exec_context.thread_0.numVecRegWrites            0                       # Number of times the vector registers were written (Count)
system.cpu12.exec_context.thread_0.numVecPredRegReads            0                       # Number of times the predicate registers were read (Count)
system.cpu12.exec_context.thread_0.numVecPredRegWrites            0                       # Number of times the predicate registers were written (Count)
system.cpu12.exec_context.thread_0.numCCRegReads      8063838                       # Number of times the CC registers were read (Count)
system.cpu12.exec_context.thread_0.numCCRegWrites      4337512                       # Number of times the CC registers were written (Count)
system.cpu12.exec_context.thread_0.numMemRefs      2498744                       # Number of memory refs (Count)
system.cpu12.exec_context.thread_0.numLoadInsts      1720423                       # Number of load instructions (Count)
system.cpu12.exec_context.thread_0.numStoreInsts       778321                       # Number of store instructions (Count)
system.cpu12.exec_context.thread_0.numIdleCycles 10095490569.625921                       # Number of idle cycles (Cycle)
system.cpu12.exec_context.thread_0.numBusyCycles 27869318.374079                       # Number of busy cycles (Cycle)
system.cpu12.exec_context.thread_0.notIdleFraction     0.002753                       # Percentage of non-idle cycles (Ratio)
system.cpu12.exec_context.thread_0.idleFraction     0.997247                       # Percentage of idle cycles (Ratio)
system.cpu12.exec_context.thread_0.numBranches      1280156                       # Number of branches fetched (Count)
system.cpu12.exec_context.thread_0.statExecutedInstType::No_OpClass        63473      0.52%      0.52% # Class of executed instruction. (Count)
system.cpu12.exec_context.thread_0.statExecutedInstType::IntAlu      9672848     78.88%     79.40% # Class of executed instruction. (Count)
system.cpu12.exec_context.thread_0.statExecutedInstType::IntMult        29771      0.24%     79.64% # Class of executed instruction. (Count)
system.cpu12.exec_context.thread_0.statExecutedInstType::IntDiv          429      0.00%     79.64% # Class of executed instruction. (Count)
system.cpu12.exec_context.thread_0.statExecutedInstType::FloatAdd            0      0.00%     79.64% # Class of executed instruction. (Count)
system.cpu12.exec_context.thread_0.statExecutedInstType::FloatCmp            0      0.00%     79.64% # Class of executed instruction. (Count)
system.cpu12.exec_context.thread_0.statExecutedInstType::FloatCvt           16      0.00%     79.64% # Class of executed instruction. (Count)
system.cpu12.exec_context.thread_0.statExecutedInstType::FloatMult            0      0.00%     79.64% # Class of executed instruction. (Count)
system.cpu12.exec_context.thread_0.statExecutedInstType::FloatMultAcc            0      0.00%     79.64% # Class of executed instruction. (Count)
system.cpu12.exec_context.thread_0.statExecutedInstType::FloatDiv            0      0.00%     79.64% # Class of executed instruction. (Count)
system.cpu12.exec_context.thread_0.statExecutedInstType::FloatMisc            0      0.00%     79.64% # Class of executed instruction. (Count)
system.cpu12.exec_context.thread_0.statExecutedInstType::FloatSqrt            0      0.00%     79.64% # Class of executed instruction. (Count)
system.cpu12.exec_context.thread_0.statExecutedInstType::SimdAdd            0      0.00%     79.64% # Class of executed instruction. (Count)
system.cpu12.exec_context.thread_0.statExecutedInstType::SimdAddAcc            0      0.00%     79.64% # Class of executed instruction. (Count)
system.cpu12.exec_context.thread_0.statExecutedInstType::SimdAlu            0      0.00%     79.64% # Class of executed instruction. (Count)
system.cpu12.exec_context.thread_0.statExecutedInstType::SimdCmp            0      0.00%     79.64% # Class of executed instruction. (Count)
system.cpu12.exec_context.thread_0.statExecutedInstType::SimdCvt            0      0.00%     79.64% # Class of executed instruction. (Count)
system.cpu12.exec_context.thread_0.statExecutedInstType::SimdMisc            0      0.00%     79.64% # Class of executed instruction. (Count)
system.cpu12.exec_context.thread_0.statExecutedInstType::SimdMult            0      0.00%     79.64% # Class of executed instruction. (Count)
system.cpu12.exec_context.thread_0.statExecutedInstType::SimdMultAcc            0      0.00%     79.64% # Class of executed instruction. (Count)
system.cpu12.exec_context.thread_0.statExecutedInstType::SimdShift            0      0.00%     79.64% # Class of executed instruction. (Count)
system.cpu12.exec_context.thread_0.statExecutedInstType::SimdShiftAcc            0      0.00%     79.64% # Class of executed instruction. (Count)
system.cpu12.exec_context.thread_0.statExecutedInstType::SimdDiv            0      0.00%     79.64% # Class of executed instruction. (Count)
system.cpu12.exec_context.thread_0.statExecutedInstType::SimdSqrt            0      0.00%     79.64% # Class of executed instruction. (Count)
system.cpu12.exec_context.thread_0.statExecutedInstType::SimdFloatAdd            0      0.00%     79.64% # Class of executed instruction. (Count)
system.cpu12.exec_context.thread_0.statExecutedInstType::SimdFloatAlu            0      0.00%     79.64% # Class of executed instruction. (Count)
system.cpu12.exec_context.thread_0.statExecutedInstType::SimdFloatCmp            0      0.00%     79.64% # Class of executed instruction. (Count)
system.cpu12.exec_context.thread_0.statExecutedInstType::SimdFloatCvt            0      0.00%     79.64% # Class of executed instruction. (Count)
system.cpu12.exec_context.thread_0.statExecutedInstType::SimdFloatDiv            0      0.00%     79.64% # Class of executed instruction. (Count)
system.cpu12.exec_context.thread_0.statExecutedInstType::SimdFloatMisc            0      0.00%     79.64% # Class of executed instruction. (Count)
system.cpu12.exec_context.thread_0.statExecutedInstType::SimdFloatMult            0      0.00%     79.64% # Class of executed instruction. (Count)
system.cpu12.exec_context.thread_0.statExecutedInstType::SimdFloatMultAcc            0      0.00%     79.64% # Class of executed instruction. (Count)
system.cpu12.exec_context.thread_0.statExecutedInstType::SimdFloatSqrt            0      0.00%     79.64% # Class of executed instruction. (Count)
system.cpu12.exec_context.thread_0.statExecutedInstType::SimdReduceAdd            0      0.00%     79.64% # Class of executed instruction. (Count)
system.cpu12.exec_context.thread_0.statExecutedInstType::SimdReduceAlu            0      0.00%     79.64% # Class of executed instruction. (Count)
system.cpu12.exec_context.thread_0.statExecutedInstType::SimdReduceCmp            0      0.00%     79.64% # Class of executed instruction. (Count)
system.cpu12.exec_context.thread_0.statExecutedInstType::SimdFloatReduceAdd            0      0.00%     79.64% # Class of executed instruction. (Count)
system.cpu12.exec_context.thread_0.statExecutedInstType::SimdFloatReduceCmp            0      0.00%     79.64% # Class of executed instruction. (Count)
system.cpu12.exec_context.thread_0.statExecutedInstType::SimdAes            0      0.00%     79.64% # Class of executed instruction. (Count)
system.cpu12.exec_context.thread_0.statExecutedInstType::SimdAesMix            0      0.00%     79.64% # Class of executed instruction. (Count)
system.cpu12.exec_context.thread_0.statExecutedInstType::SimdSha1Hash            0      0.00%     79.64% # Class of executed instruction. (Count)
system.cpu12.exec_context.thread_0.statExecutedInstType::SimdSha1Hash2            0      0.00%     79.64% # Class of executed instruction. (Count)
system.cpu12.exec_context.thread_0.statExecutedInstType::SimdSha256Hash            0      0.00%     79.64% # Class of executed instruction. (Count)
system.cpu12.exec_context.thread_0.statExecutedInstType::SimdSha256Hash2            0      0.00%     79.64% # Class of executed instruction. (Count)
system.cpu12.exec_context.thread_0.statExecutedInstType::SimdShaSigma2            0      0.00%     79.64% # Class of executed instruction. (Count)
system.cpu12.exec_context.thread_0.statExecutedInstType::SimdShaSigma3            0      0.00%     79.64% # Class of executed instruction. (Count)
system.cpu12.exec_context.thread_0.statExecutedInstType::SimdPredAlu            0      0.00%     79.64% # Class of executed instruction. (Count)
system.cpu12.exec_context.thread_0.statExecutedInstType::MemRead      1717933     14.01%     93.65% # Class of executed instruction. (Count)
system.cpu12.exec_context.thread_0.statExecutedInstType::MemWrite       778289      6.35%    100.00% # Class of executed instruction. (Count)
system.cpu12.exec_context.thread_0.statExecutedInstType::FloatMemRead            0      0.00%    100.00% # Class of executed instruction. (Count)
system.cpu12.exec_context.thread_0.statExecutedInstType::FloatMemWrite           32      0.00%    100.00% # Class of executed instruction. (Count)
system.cpu12.exec_context.thread_0.statExecutedInstType::IprAccess            0      0.00%    100.00% # Class of executed instruction. (Count)
system.cpu12.exec_context.thread_0.statExecutedInstType::InstPrefetch            0      0.00%    100.00% # Class of executed instruction. (Count)
system.cpu12.exec_context.thread_0.statExecutedInstType::total     12262791                       # Class of executed instruction. (Count)
system.cpu12.interrupts.clk_domain.clock         8000                       # Clock period in ticks (Tick)
system.cpu12.mmu.dtb.rdAccesses               1724023                       # TLB accesses on read requests (Count)
system.cpu12.mmu.dtb.wrAccesses                781918                       # TLB accesses on write requests (Count)
system.cpu12.mmu.dtb.rdMisses                      19                       # TLB misses on read requests (Count)
system.cpu12.mmu.dtb.wrMisses                       3                       # TLB misses on write requests (Count)
system.cpu12.mmu.dtb.walker.power_state.pwrStateResidencyTicks::UNDEFINED 5062904008000                       # Cumulative time (in ticks) in various power states (Tick)
system.cpu12.mmu.itb.rdAccesses                     0                       # TLB accesses on read requests (Count)
system.cpu12.mmu.itb.wrAccesses               8531201                       # TLB accesses on write requests (Count)
system.cpu12.mmu.itb.rdMisses                       0                       # TLB misses on read requests (Count)
system.cpu12.mmu.itb.wrMisses                       8                       # TLB misses on write requests (Count)
system.cpu12.mmu.itb.walker.power_state.pwrStateResidencyTicks::UNDEFINED 5062904008000                       # Cumulative time (in ticks) in various power states (Tick)
system.cpu12.power_state.numTransitions          2492                       # Number of power state transitions (Count)
system.cpu12.power_state.ticksClkGated::samples         1247                       # Distribution of time spent in the clock gated state
system.cpu12.power_state.ticksClkGated::mean 3667699173.616680                       # Distribution of time spent in the clock gated state
system.cpu12.power_state.ticksClkGated::stdev 1064954861.528360                       # Distribution of time spent in the clock gated state
system.cpu12.power_state.ticksClkGated::1000-5e+10         1247    100.00%    100.00% # Distribution of time spent in the clock gated state
system.cpu12.power_state.ticksClkGated::min_value       667000                       # Distribution of time spent in the clock gated state
system.cpu12.power_state.ticksClkGated::max_value  10001274000                       # Distribution of time spent in the clock gated state
system.cpu12.power_state.ticksClkGated::total         1247                       # Distribution of time spent in the clock gated state
system.cpu12.power_state.pwrStateResidencyTicks::ON 489283138500                       # Cumulative time (in ticks) in various power states (Tick)
system.cpu12.power_state.pwrStateResidencyTicks::CLK_GATED 4573620869500                       # Cumulative time (in ticks) in various power states (Tick)
system.cpu12.thread_0.numInsts                      0                       # Number of Instructions committed (Count)
system.cpu12.thread_0.numOps                        0                       # Number of Ops committed (Count)
system.cpu12.thread_0.numMemRefs                    0                       # Number of Memory References (Count)
system.cpu13.numCycles                    10122874757                       # Number of cpu cycles simulated (Cycle)
system.cpu13.numWorkItemsStarted                    0                       # Number of work items this cpu started (Count)
system.cpu13.numWorkItemsCompleted                  0                       # Number of work items this cpu completed (Count)
system.cpu13.exec_context.thread_0.numInsts      6233651                       # Number of instructions committed (Count)
system.cpu13.exec_context.thread_0.numOps     12254485                       # Number of ops (including micro ops) committed (Count)
system.cpu13.exec_context.thread_0.numIntAluAccesses     12071475                       # Number of integer alu accesses (Count)
system.cpu13.exec_context.thread_0.numFpAluAccesses           48                       # Number of float alu accesses (Count)
system.cpu13.exec_context.thread_0.numVecAluAccesses            0                       # Number of vector alu accesses (Count)
system.cpu13.exec_context.thread_0.numCallsReturns       285205                       # Number of times a function call or return occured (Count)
system.cpu13.exec_context.thread_0.numCondCtrlInsts       866034                       # Number of instructions that are conditional controls (Count)
system.cpu13.exec_context.thread_0.numIntInsts     12071475                       # Number of integer instructions (Count)
system.cpu13.exec_context.thread_0.numFpInsts           48                       # Number of float instructions (Count)
system.cpu13.exec_context.thread_0.numVecInsts            0                       # Number of vector instructions (Count)
system.cpu13.exec_context.thread_0.numIntRegReads     23453524                       # Number of times the integer registers were read (Count)
system.cpu13.exec_context.thread_0.numIntRegWrites     10081126                       # Number of times the integer registers were written (Count)
system.cpu13.exec_context.thread_0.numFpRegReads           48                       # Number of times the floating registers were read (Count)
system.cpu13.exec_context.thread_0.numFpRegWrites            0                       # Number of times the floating registers were written (Count)
system.cpu13.exec_context.thread_0.numVecRegReads            0                       # Number of times the vector registers were read (Count)
system.cpu13.exec_context.thread_0.numVecRegWrites            0                       # Number of times the vector registers were written (Count)
system.cpu13.exec_context.thread_0.numVecPredRegReads            0                       # Number of times the predicate registers were read (Count)
system.cpu13.exec_context.thread_0.numVecPredRegWrites            0                       # Number of times the predicate registers were written (Count)
system.cpu13.exec_context.thread_0.numCCRegReads      8060345                       # Number of times the CC registers were read (Count)
system.cpu13.exec_context.thread_0.numCCRegWrites      4335006                       # Number of times the CC registers were written (Count)
system.cpu13.exec_context.thread_0.numMemRefs      2496583                       # Number of memory refs (Count)
system.cpu13.exec_context.thread_0.numLoadInsts      1719062                       # Number of load instructions (Count)
system.cpu13.exec_context.thread_0.numStoreInsts       777521                       # Number of store instructions (Count)
system.cpu13.exec_context.thread_0.numIdleCycles 10095189785.147350                       # Number of idle cycles (Cycle)
[...]
system.ruby.network.netifs25.power_state.pwrStateResidencyTicks::UNDEFINED 5068077212000                       # Cumulative time (in ticks) in various power states (Tick)
system.ruby.network.netifs26.power_state.pwrStateResidencyTicks::UNDEFINED 5068077212000                       # Cumulative time (in ticks) in various power states (Tick)
system.ruby.network.netifs27.power_state.pwrStateResidencyTicks::UNDEFINED 5068077212000                       # Cumulative time (in ticks) in various power states (Tick)
system.ruby.network.netifs28.power_state.pwrStateResidencyTicks::UNDEFINED 5068077212000                       # Cumulative time (in ticks) in various power states (Tick)
system.ruby.network.netifs29.power_state.pwrStateResidencyTicks::UNDEFINED 5068077212000                       # Cumulative time (in ticks) in various power states (Tick)
system.ruby.network.netifs3.power_state.pwrStateResidencyTicks::UNDEFINED 5068077212000                       # Cumulative time (in ticks) in various power states (Tick)
system.ruby.network.netifs30.power_state.pwrStateResidencyTicks::UNDEFINED 5068077212000                       # Cumulative time (in ticks) in various power states (Tick)
system.ruby.network.netifs31.power_state.pwrStateResidencyTicks::UNDEFINED 5068077212000                       # Cumulative time (in ticks) in various power states (Tick)
system.ruby.network.netifs32.power_state.pwrStateResidencyTicks::UNDEFINED 5068077212000                       # Cumulative time (in ticks) in various power states (Tick)
system.ruby.network.netifs33.power_state.pwrStateResidencyTicks::UNDEFINED 5068077212000                       # Cumulative time (in ticks) in various power states (Tick)
system.ruby.network.netifs4.power_state.pwrStateResidencyTicks::UNDEFINED 5068077212000                       # Cumulative time (in ticks) in various power states (Tick)
system.ruby.network.netifs5.power_state.pwrStateResidencyTicks::UNDEFINED 5068077212000                       # Cumulative time (in ticks) in various power states (Tick)
system.ruby.network.netifs6.power_state.pwrStateResidencyTicks::UNDEFINED 5068077212000                       # Cumulative time (in ticks) in various power states (Tick)
system.ruby.network.netifs7.power_state.pwrStateResidencyTicks::UNDEFINED 5068077212000                       # Cumulative time (in ticks) in various power states (Tick)
system.ruby.network.netifs8.power_state.pwrStateResidencyTicks::UNDEFINED 5068077212000                       # Cumulative time (in ticks) in various power states (Tick)
system.ruby.network.netifs9.power_state.pwrStateResidencyTicks::UNDEFINED 5068077212000                       # Cumulative time (in ticks) in various power states (Tick)
system.ruby.network.power_state.pwrStateResidencyTicks::UNDEFINED 5068077212000                       # Cumulative time (in ticks) in various power states (Tick)
system.ruby.network.routers0.power_state.pwrStateResidencyTicks::UNDEFINED 5068077212000                       # Cumulative time (in ticks) in various power states (Tick)
system.ruby.network.routers1.power_state.pwrStateResidencyTicks::UNDEFINED 5068077212000                       # Cumulative time (in ticks) in various power states (Tick)
system.ruby.network.routers10.power_state.pwrStateResidencyTicks::UNDEFINED 5068077212000                       # Cumulative time (in ticks) in various power states (Tick)
system.ruby.network.routers11.power_state.pwrStateResidencyTicks::UNDEFINED 5068077212000                       # Cumulative time (in ticks) in various power states (Tick)
system.ruby.network.routers12.power_state.pwrStateResidencyTicks::UNDEFINED 5068077212000                       # Cumulative time (in ticks) in various power states (Tick)
system.ruby.network.routers13.power_state.pwrStateResidencyTicks::UNDEFINED 5068077212000                       # Cumulative time (in ticks) in various power states (Tick)
system.ruby.network.routers14.power_state.pwrStateResidencyTicks::UNDEFINED 5068077212000                       # Cumulative time (in ticks) in various power states (Tick)
system.ruby.network.routers15.power_state.pwrStateResidencyTicks::UNDEFINED 5068077212000                       # Cumulative time (in ticks) in various power states (Tick)
system.ruby.network.routers2.power_state.pwrStateResidencyTicks::UNDEFINED 5068077212000                       # Cumulative time (in ticks) in various power states (Tick)
system.ruby.network.routers3.power_state.pwrStateResidencyTicks::UNDEFINED 5068077212000                       # Cumulative time (in ticks) in various power states (Tick)
system.ruby.network.routers4.power_state.pwrStateResidencyTicks::UNDEFINED 5068077212000                       # Cumulative time (in ticks) in various power states (Tick)
system.ruby.network.routers5.power_state.pwrStateResidencyTicks::UNDEFINED 5068077212000                       # Cumulative time (in ticks) in various power states (Tick)
system.ruby.network.routers6.power_state.pwrStateResidencyTicks::UNDEFINED 5068077212000                       # Cumulative time (in ticks) in various power states (Tick)
system.ruby.network.routers7.power_state.pwrStateResidencyTicks::UNDEFINED 5068077212000                       # Cumulative time (in ticks) in various power states (Tick)
system.ruby.network.routers8.power_state.pwrStateResidencyTicks::UNDEFINED 5068077212000                       # Cumulative time (in ticks) in various power states (Tick)
system.ruby.network.routers9.power_state.pwrStateResidencyTicks::UNDEFINED 5068077212000                       # Cumulative time (in ticks) in various power states (Tick)
system.ruby.power_state.pwrStateResidencyTicks::UNDEFINED 5068077212000                       # Cumulative time (in ticks) in various power states (Tick)
system.sys_port_proxy.power_state.pwrStateResidencyTicks::UNDEFINED   5173204000                       # Cumulative time (in ticks) in various power states (Tick)
system.voltage_domain.voltage                       1                       # Voltage in Volts (Volt)
system.workload.inst.arm                            0                       # number of arm instructions executed (Count)
system.workload.inst.quiesce                      120                       # number of quiesce instructions executed (Count)
system.ruby.network.average_flit_latency  8770.933128                       (Unspecified)
system.ruby.network.average_flit_network_latency  5557.274309                       (Unspecified)
system.ruby.network.average_flit_queueing_latency  3213.658819                       (Unspecified)
system.ruby.network.average_flit_vnet_latency | 4611.405836                       | 4731.309345                       | 4335.760092                       | 5142.513810                       | 5519.651311                       | 7114.411546                       (Unspecified)
system.ruby.network.average_flit_vqueue_latency | 3014.350133                       |         500                       | 1058.428080                       | 2859.746036                       | 3491.903985                       |        5000                       (Unspecified)
system.ruby.network.average_hops             2.768392                       (Unspecified)
system.ruby.network.average_packet_latency  8362.062174                       (Unspecified)
system.ruby.network.average_packet_network_latency  5429.344715                       (Unspecified)
system.ruby.network.average_packet_queueing_latency  2932.717459                       (Unspecified)
system.ruby.network.average_packet_vnet_latency | 4611.405836                       | 4700.026525                       | 4335.760092                       | 5142.513810                       | 6785.873296                       | 6314.988073                       (Unspecified)
system.ruby.network.average_packet_vqueue_latency | 3014.350133                       |         500                       | 1058.428080                       | 2859.746036                       | 4173.252327                       |        5000                       (Unspecified)
system.ruby.network.avg_link_utilization     0.143700                       (Unspecified)
system.ruby.network.avg_vc_load          |    0.007605      5.29%      5.29% |    0.001509      1.05%      6.34% |    0.000518      0.36%      6.70% |    0.000514      0.36%      7.06% |    0.006167      4.29%     11.35% |    0.002285      1.59%     12.94% |    0.001493      1.04%     13.98% |    0.000824      0.57%     14.55% |    0.013705      9.54%     24.09% |    0.001354      0.94%     25.03% |    0.000869      0.60%     25.64% |    0.000869      0.60%     26.24% |    0.009857      6.86%     33.10% |    0.001790      1.25%     34.35% |    0.001311      0.91%     35.26% |    0.000999      0.70%     35.96% |    0.049391     34.37%     70.33% |    0.004749      3.31%     73.63% |    0.004035      2.81%     76.44% |    0.003689      2.57%     79.01% |    0.025343     17.64%     96.64% |    0.001701      1.18%     97.83% |    0.001566      1.09%     98.92% |    0.001559      1.08%    100.00% (Unspecified)
system.ruby.network.avg_vc_load::total       0.143700                       (Unspecified)
system.ruby.network.ext_in_link_utilization       279951                       (Unspecified)
system.ruby.network.ext_out_link_utilization       279951                       (Unspecified)
system.ruby.network.flit_network_latency |    86925000                       |    94673500                       |   139954000                       |   143363000                       |   679728500                       |   411120500                       (Unspecified)
system.ruby.network.flit_queueing_latency |    56820500                       |    10005000                       |    34165000                       |    79724000                       |   430017500                       |   288935000                       (Unspecified)
system.ruby.network.flits_injected       |       18850      6.73%      6.73% |       20010      7.15%     13.88% |       32279     11.53%     25.41% |       27878      9.96%     35.37% |      123147     43.99%     79.36% |       57787     20.64%    100.00% (Unspecified)
system.ruby.network.flits_injected::total       279951                       (Unspecified)
system.ruby.network.flits_received       |       18850      6.73%      6.73% |       20010      7.15%     13.88% |       32279     11.53%     25.41% |       27878      9.96%     35.37% |      123147     43.99%     79.36% |       57787     20.64%    100.00% (Unspecified)
system.ruby.network.flits_received::total       279951                       (Unspecified)
system.ruby.network.int_link_utilization       775014                       (Unspecified)
system.ruby.network.packet_network_latency |    86925000                       |    88595500                       |   139954000                       |   143363000                       |   219475500                       |   203841500                       (Unspecified)
system.ruby.network.packet_queueing_latency |    56820500                       |     9425000                       |    34165000                       |    79724000                       |   134975500                       |   161395000                       (Unspecified)
system.ruby.network.packets_injected     |       18850     11.60%     11.60% |       18850     11.60%     23.20% |       32279     19.87%     43.07% |       27878     17.16%     60.23% |       32343     19.91%     80.13% |       32279     19.87%    100.00% (Unspecified)
system.ruby.network.packets_injected::total       162479                       (Unspecified)
system.ruby.network.packets_received     |       18850     11.60%     11.60% |       18850     11.60%     23.20% |       32279     19.87%     43.07% |       27878     17.16%     60.23% |       32343     19.91%     80.13% |       32279     19.87%    100.00% (Unspecified)
system.ruby.network.packets_received::total       162479                       (Unspecified)
system.ruby.network.routers00.buffer_reads       202415                       (Unspecified)
system.ruby.network.routers00.buffer_writes       202415                       (Unspecified)
system.ruby.network.routers00.crossbar_activity       202415                       (Unspecified)
system.ruby.network.routers00.sw_input_arbiter_activity       205262                       (Unspecified)
system.ruby.network.routers00.sw_output_arbiter_activity       202415                       (Unspecified)
system.ruby.network.routers01.buffer_reads       115802                       (Unspecified)
system.ruby.network.routers01.buffer_writes       115802                       (Unspecified)
system.ruby.network.routers01.crossbar_activity       115802                       (Unspecified)
system.ruby.network.routers01.sw_input_arbiter_activity       116970                       (Unspecified)
system.ruby.network.routers01.sw_output_arbiter_activity       115802                       (Unspecified)
system.ruby.network.routers02.buffer_reads        89581                       (Unspecified)
system.ruby.network.routers02.buffer_writes        89581                       (Unspecified)
system.ruby.network.routers02.crossbar_activity        89581                       (Unspecified)
system.ruby.network.routers02.sw_input_arbiter_activity        91047                       (Unspecified)
system.ruby.network.routers02.sw_output_arbiter_activity        89581                       (Unspecified)
system.ruby.network.routers03.buffer_reads        37210                       (Unspecified)
system.ruby.network.routers03.buffer_writes        37210                       (Unspecified)
system.ruby.network.routers03.crossbar_activity        37210                       (Unspecified)
system.ruby.network.routers03.sw_input_arbiter_activity        37567                       (Unspecified)
system.ruby.network.routers03.sw_output_arbiter_activity        37210                       (Unspecified)
system.ruby.network.routers04.buffer_reads       128115                       (Unspecified)
system.ruby.network.routers04.buffer_writes       128115                       (Unspecified)
system.ruby.network.routers04.crossbar_activity       128115                       (Unspecified)
system.ruby.network.routers04.sw_input_arbiter_activity       130938                       (Unspecified)
system.ruby.network.routers04.sw_output_arbiter_activity       128115                       (Unspecified)
system.ruby.network.routers05.buffer_reads        71511                       (Unspecified)
system.ruby.network.routers05.buffer_writes        71511                       (Unspecified)
system.ruby.network.routers05.crossbar_activity        71511                       (Unspecified)
system.ruby.network.routers05.sw_input_arbiter_activity        73144                       (Unspecified)
system.ruby.network.routers05.sw_output_arbiter_activity        71511                       (Unspecified)
system.ruby.network.routers06.buffer_reads        54406                       (Unspecified)
system.ruby.network.routers06.buffer_writes        54406                       (Unspecified)
system.ruby.network.routers06.crossbar_activity        54406                       (Unspecified)
system.ruby.network.routers06.sw_input_arbiter_activity        55948                       (Unspecified)
system.ruby.network.routers06.sw_output_arbiter_activity        54406                       (Unspecified)
system.ruby.network.routers07.buffer_reads        35981                       (Unspecified)
system.ruby.network.routers07.buffer_writes        35981                       (Unspecified)
system.ruby.network.routers07.crossbar_activity        35981                       (Unspecified)
system.ruby.network.routers07.sw_input_arbiter_activity        36884                       (Unspecified)
system.ruby.network.routers07.sw_output_arbiter_activity        35981                       (Unspecified)
system.ruby.network.routers08.buffer_reads        73580                       (Unspecified)
system.ruby.network.routers08.buffer_writes        73580                       (Unspecified)
system.ruby.network.routers08.crossbar_activity        73580                       (Unspecified)
system.ruby.network.routers08.sw_input_arbiter_activity        76070                       (Unspecified)
system.ruby.network.routers08.sw_output_arbiter_activity        73580                       (Unspecified)
system.ruby.network.routers09.buffer_reads        48144                       (Unspecified)
system.ruby.network.routers09.buffer_writes        48144                       (Unspecified)
system.ruby.network.routers09.crossbar_activity        48144                       (Unspecified)
system.ruby.network.routers09.sw_input_arbiter_activity        49717                       (Unspecified)
system.ruby.network.routers09.sw_output_arbiter_activity        48144                       (Unspecified)
system.ruby.network.routers10.buffer_reads        38668                       (Unspecified)
system.ruby.network.routers10.buffer_writes        38668                       (Unspecified)
system.ruby.network.routers10.crossbar_activity        38668                       (Unspecified)
system.ruby.network.routers10.sw_input_arbiter_activity        40041                       (Unspecified)
system.ruby.network.routers10.sw_output_arbiter_activity        38668                       (Unspecified)
system.ruby.network.routers11.buffer_reads        28230                       (Unspecified)
system.ruby.network.routers11.buffer_writes        28230                       (Unspecified)
system.ruby.network.routers11.crossbar_activity        28230                       (Unspecified)
system.ruby.network.routers11.sw_input_arbiter_activity        29164                       (Unspecified)
system.ruby.network.routers11.sw_output_arbiter_activity        28230                       (Unspecified)
system.ruby.network.routers12.buffer_reads        39222                       (Unspecified)
system.ruby.network.routers12.buffer_writes        39222                       (Unspecified)
system.ruby.network.routers12.crossbar_activity        39222                       (Unspecified)
system.ruby.network.routers12.sw_input_arbiter_activity        39517                       (Unspecified)
system.ruby.network.routers12.sw_output_arbiter_activity        39222                       (Unspecified)
system.ruby.network.routers13.buffer_reads        37142                       (Unspecified)
system.ruby.network.routers13.buffer_writes        37142                       (Unspecified)
system.ruby.network.routers13.crossbar_activity        37142                       (Unspecified)
system.ruby.network.routers13.sw_input_arbiter_activity        37888                       (Unspecified)
system.ruby.network.routers13.sw_output_arbiter_activity        37142                       (Unspecified)
system.ruby.network.routers14.buffer_reads        31706                       (Unspecified)
system.ruby.network.routers14.buffer_writes        31706                       (Unspecified)
system.ruby.network.routers14.crossbar_activity        31706                       (Unspecified)
system.ruby.network.routers14.sw_input_arbiter_activity        32541                       (Unspecified)
system.ruby.network.routers14.sw_output_arbiter_activity        31706                       (Unspecified)
system.ruby.network.routers15.buffer_reads        23252                       (Unspecified)
system.ruby.network.routers15.buffer_writes        23252                       (Unspecified)
system.ruby.network.routers15.crossbar_activity        23252                       (Unspecified)
system.ruby.network.routers15.sw_input_arbiter_activity        23566                       (Unspecified)
system.ruby.network.routers15.sw_output_arbiter_activity        23252                       (Unspecified)

---------- End Simulation Statistics   ----------
