
---------- Begin Simulation Statistics ----------
simSeconds                                   5.050608                       # Number of seconds simulated (Second)
simTicks                                 5050607699000                       # Number of ticks simulated (Tick)
finalTick                                5050607699000                       # Number of ticks from beginning of simulation (restored from checkpoints and never reset) (Tick)
simFreq                                  1000000000000                       # The number of ticks per simulated second ((Tick/Second))
hostSeconds                                   2764.18                       # Real time elapsed on the host (Second)
hostTickRate                               1827162953                       # The number of ticks simulated per host second (ticks/s) ((Tick/Second))
hostMemory                                    2231676                       # Number of bytes of host memory used (Byte)
simInsts                                    327170459                       # Number of instructions simulated (Count)
simOps                                      785141688                       # Number of ops (including micro ops) simulated (Count)
hostInstRate                                   118361                       # Simulator instruction rate (inst/s) ((Count/Second))
hostOpRate                                     284041                       # Simulator op (including micro ops) rate (op/s) ((Count/Second))
system.clk_domain.clock                          1000                       # Clock period in ticks (Tick)
system.cpu0.numCycles                     10100634982                       # Number of cpu cycles simulated (Cycle)
system.cpu0.numWorkItemsStarted                     0                       # Number of work items this cpu started (Count)
system.cpu0.numWorkItemsCompleted                   0                       # Number of work items this cpu completed (Count)
system.cpu0.exec_context.thread_0.numInsts    211410086                       # Number of instructions committed (Count)
system.cpu0.exec_context.thread_0.numOps    556310411                       # Number of ops (including micro ops) committed (Count)
system.cpu0.exec_context.thread_0.numIntAluAccesses    497894513                       # Number of integer alu accesses (Count)
system.cpu0.exec_context.thread_0.numFpAluAccesses        18703                       # Number of float alu accesses (Count)
system.cpu0.exec_context.thread_0.numVecAluAccesses            0                       # Number of vector alu accesses (Count)
system.cpu0.exec_context.thread_0.numCallsReturns      3034944                       # Number of times a function call or return occured (Count)
system.cpu0.exec_context.thread_0.numCondCtrlInsts     70406131                       # Number of instructions that are conditional controls (Count)
system.cpu0.exec_context.thread_0.numIntInsts    497894513                       # Number of integer instructions (Count)
system.cpu0.exec_context.thread_0.numFpInsts        18703                       # Number of float instructions (Count)
system.cpu0.exec_context.thread_0.numVecInsts            0                       # Number of vector instructions (Count)
system.cpu0.exec_context.thread_0.numIntRegReads    820695968                       # Number of times the integer registers were read (Count)
system.cpu0.exec_context.thread_0.numIntRegWrites    413390652                       # Number of times the integer registers were written (Count)
system.cpu0.exec_context.thread_0.numFpRegReads        31717                       # Number of times the floating registers were read (Count)
system.cpu0.exec_context.thread_0.numFpRegWrites        14910                       # Number of times the floating registers were written (Count)
system.cpu0.exec_context.thread_0.numVecRegReads            0                       # Number of times the vector registers were read (Count)
system.cpu0.exec_context.thread_0.numVecRegWrites            0                       # Number of times the vector registers were written (Count)
system.cpu0.exec_context.thread_0.numVecPredRegReads            0                       # Number of times the predicate registers were read (Count)
system.cpu0.exec_context.thread_0.numVecPredRegWrites            0                       # Number of times the predicate registers were written (Count)
system.cpu0.exec_context.thread_0.numCCRegReads    373216289                       # Number of times the CC registers were read (Count)
system.cpu0.exec_context.thread_0.numCCRegWrites    160501053                       # Number of times the CC registers were written (Count)
system.cpu0.exec_context.thread_0.numMemRefs     84707252                       # Number of memory refs (Count)
system.cpu0.exec_context.thread_0.numLoadInsts     61999053                       # Number of load instructions (Count)
system.cpu0.exec_context.thread_0.numStoreInsts     22708199                       # Number of store instructions (Count)
system.cpu0.exec_context.thread_0.numIdleCycles 9223465950.477175                       # Number of idle cycles (Cycle)
system.cpu0.exec_context.thread_0.numBusyCycles 877169031.522826                       # Number of busy cycles (Cycle)
system.cpu0.exec_context.thread_0.notIdleFraction     0.086843                       # Percentage of non-idle cycles (Ratio)
system.cpu0.exec_context.thread_0.idleFraction     0.913157                       # Percentage of idle cycles (Ratio)
system.cpu0.exec_context.thread_0.numBranches     75218079                       # Number of branches fetched (Count)
system.cpu0.exec_context.thread_0.statExecutedInstType::No_OpClass     13720919      2.47%      2.47% # Class of executed instruction. (Count)
system.cpu0.exec_context.thread_0.statExecutedInstType::IntAlu    457509860     82.24%     84.71% # Class of executed instruction. (Count)
system.cpu0.exec_context.thread_0.statExecutedInstType::IntMult       322651      0.06%     84.76% # Class of executed instruction. (Count)
system.cpu0.exec_context.thread_0.statExecutedInstType::IntDiv        41158      0.01%     84.77% # Class of executed instruction. (Count)
system.cpu0.exec_context.thread_0.statExecutedInstType::FloatAdd          440      0.00%     84.77% # Class of executed instruction. (Count)
system.cpu0.exec_context.thread_0.statExecutedInstType::FloatCmp            0      0.00%     84.77% # Class of executed instruction. (Count)
system.cpu0.exec_context.thread_0.statExecutedInstType::FloatCvt           16      0.00%     84.77% # Class of executed instruction. (Count)
system.cpu0.exec_context.thread_0.statExecutedInstType::FloatMult            0      0.00%     84.77% # Class of executed instruction. (Count)
system.cpu0.exec_context.thread_0.statExecutedInstType::FloatMultAcc            0      0.00%     84.77% # Class of executed instruction. (Count)
system.cpu0.exec_context.thread_0.statExecutedInstType::FloatDiv            0      0.00%     84.77% # Class of executed instruction. (Count)
system.cpu0.exec_context.thread_0.statExecutedInstType::FloatMisc            0      0.00%     84.77% # Class of executed instruction. (Count)
system.cpu0.exec_context.thread_0.statExecutedInstType::FloatSqrt            0      0.00%     84.77% # Class of executed instruction. (Count)
system.cpu0.exec_context.thread_0.statExecutedInstType::SimdAdd          628      0.00%     84.77% # Class of executed instruction. (Count)
system.cpu0.exec_context.thread_0.statExecutedInstType::SimdAddAcc            0      0.00%     84.77% # Class of executed instruction. (Count)
system.cpu0.exec_context.thread_0.statExecutedInstType::SimdAlu         1584      0.00%     84.77% # Class of executed instruction. (Count)
system.cpu0.exec_context.thread_0.statExecutedInstType::SimdCmp            0      0.00%     84.77% # Class of executed instruction. (Count)
system.cpu0.exec_context.thread_0.statExecutedInstType::SimdCvt         4254      0.00%     84.77% # Class of executed instruction. (Count)
system.cpu0.exec_context.thread_0.statExecutedInstType::SimdMisc         6328      0.00%     84.77% # Class of executed instruction. (Count)
system.cpu0.exec_context.thread_0.statExecutedInstType::SimdMult            0      0.00%     84.77% # Class of executed instruction. (Count)
system.cpu0.exec_context.thread_0.statExecutedInstType::SimdMultAcc            0      0.00%     84.77% # Class of executed instruction. (Count)
system.cpu0.exec_context.thread_0.statExecutedInstType::SimdShift          330      0.00%     84.77% # Class of executed instruction. (Count)
system.cpu0.exec_context.thread_0.statExecutedInstType::SimdShiftAcc            0      0.00%     84.77% # Class of executed instruction. (Count)
system.cpu0.exec_context.thread_0.statExecutedInstType::SimdDiv            0      0.00%     84.77% # Class of executed instruction. (Count)
system.cpu0.exec_context.thread_0.statExecutedInstType::SimdSqrt            0      0.00%     84.77% # Class of executed instruction. (Count)
system.cpu0.exec_context.thread_0.statExecutedInstType::SimdFloatAdd            0      0.00%     84.77% # Class of executed instruction. (Count)
system.cpu0.exec_context.thread_0.statExecutedInstType::SimdFloatAlu            0      0.00%     84.77% # Class of executed instruction. (Count)
system.cpu0.exec_context.thread_0.statExecutedInstType::SimdFloatCmp            0      0.00%     84.77% # Class of executed instruction. (Count)
system.cpu0.exec_context.thread_0.statExecutedInstType::SimdFloatCvt            0      0.00%     84.77% # Class of executed instruction. (Count)
system.cpu0.exec_context.thread_0.statExecutedInstType::SimdFloatDiv            0      0.00%     84.77% # Class of executed instruction. (Count)
system.cpu0.exec_context.thread_0.statExecutedInstType::SimdFloatMisc            0      0.00%     84.77% # Class of executed instruction. (Count)
system.cpu0.exec_context.thread_0.statExecutedInstType::SimdFloatMult            0      0.00%     84.77% # Class of executed instruction. (Count)
system.cpu0.exec_context.thread_0.statExecutedInstType::SimdFloatMultAcc            0      0.00%     84.77% # Class of executed instruction. (Count)
system.cpu0.exec_context.thread_0.statExecutedInstType::SimdFloatSqrt            0      0.00%     84.77% # Class of executed instruction. (Count)
system.cpu0.exec_context.thread_0.statExecutedInstType::SimdReduceAdd            0      0.00%     84.77% # Class of executed instruction. (Count)
system.cpu0.exec_context.thread_0.statExecutedInstType::SimdReduceAlu            0      0.00%     84.77% # Class of executed instruction. (Count)
system.cpu0.exec_context.thread_0.statExecutedInstType::SimdReduceCmp            0      0.00%     84.77% # Class of executed instruction. (Count)
system.cpu0.exec_context.thread_0.statExecutedInstType::SimdFloatReduceAdd            0      0.00%     84.77% # Class of executed instruction. (Count)
system.cpu0.exec_context.thread_0.statExecutedInstType::SimdFloatReduceCmp            0      0.00%     84.77% # Class of executed instruction. (Count)
system.cpu0.exec_context.thread_0.statExecutedInstType::SimdAes            0      0.00%     84.77% # Class of executed instruction. (Count)
system.cpu0.exec_context.thread_0.statExecutedInstType::SimdAesMix            0      0.00%     84.77% # Class of executed instruction. (Count)
system.cpu0.exec_context.thread_0.statExecutedInstType::SimdSha1Hash            0      0.00%     84.77% # Class of executed instruction. (Count)
system.cpu0.exec_context.thread_0.statExecutedInstType::SimdSha1Hash2            0      0.00%     84.77% # Class of executed instruction. (Count)
system.cpu0.exec_context.thread_0.statExecutedInstType::SimdSha256Hash            0      0.00%     84.77% # Class of executed instruction. (Count)
system.cpu0.exec_context.thread_0.statExecutedInstType::SimdSha256Hash2            0      0.00%     84.77% # Class of executed instruction. (Count)
system.cpu0.exec_context.thread_0.statExecutedInstType::SimdShaSigma2            0      0.00%     84.77% # Class of executed instruction. (Count)
system.cpu0.exec_context.thread_0.statExecutedInstType::SimdShaSigma3            0      0.00%     84.77% # Class of executed instruction. (Count)
system.cpu0.exec_context.thread_0.statExecutedInstType::SimdPredAlu            0      0.00%     84.77% # Class of executed instruction. (Count)
system.cpu0.exec_context.thread_0.statExecutedInstType::MemRead     61991375     11.14%     95.92% # Class of executed instruction. (Count)
system.cpu0.exec_context.thread_0.statExecutedInstType::MemWrite     22708052      4.08%    100.00% # Class of executed instruction. (Count)
system.cpu0.exec_context.thread_0.statExecutedInstType::FloatMemRead         3144      0.00%    100.00% # Class of executed instruction. (Count)
system.cpu0.exec_context.thread_0.statExecutedInstType::FloatMemWrite          147      0.00%    100.00% # Class of executed instruction. (Count)
system.cpu0.exec_context.thread_0.statExecutedInstType::IprAccess            0      0.00%    100.00% # Class of executed instruction. (Count)
system.cpu0.exec_context.thread_0.statExecutedInstType::InstPrefetch            0      0.00%    100.00% # Class of executed instruction. (Count)
system.cpu0.exec_context.thread_0.statExecutedInstType::total    556310886                       # Class of executed instruction. (Count)
system.cpu0.interrupts.clk_domain.clock          8000                       # Clock period in ticks (Tick)
system.cpu0.mmu.dtb.rdAccesses               61841453                       # TLB accesses on read requests (Count)
system.cpu0.mmu.dtb.wrAccesses               22689229                       # TLB accesses on write requests (Count)
system.cpu0.mmu.dtb.rdMisses                      713                       # TLB misses on read requests (Count)
system.cpu0.mmu.dtb.wrMisses                      277                       # TLB misses on write requests (Count)
system.cpu0.mmu.dtb.walker.power_state.pwrStateResidencyTicks::UNDEFINED 5050607699000                       # Cumulative time (in ticks) in various power states (Tick)
system.cpu0.mmu.itb.rdAccesses                      0                       # TLB accesses on read requests (Count)
system.cpu0.mmu.itb.wrAccesses              279740698                       # TLB accesses on write requests (Count)
system.cpu0.mmu.itb.rdMisses                        0                       # TLB misses on read requests (Count)
system.cpu0.mmu.itb.wrMisses                      705                       # TLB misses on write requests (Count)
system.cpu0.mmu.itb.walker.power_state.pwrStateResidencyTicks::UNDEFINED 5050607699000                       # Cumulative time (in ticks) in various power states (Tick)
system.cpu0.power_state.numTransitions          24681                       # Number of power state transitions (Count)
system.cpu0.power_state.ticksClkGated::samples        12300                       # Distribution of time spent in the clock gated state
system.cpu0.power_state.ticksClkGated::mean 374959185.424146                       # Distribution of time spent in the clock gated state
system.cpu0.power_state.ticksClkGated::stdev 1131953936.590560                       # Distribution of time spent in the clock gated state
system.cpu0.power_state.ticksClkGated::1000-5e+10        12300    100.00%    100.00% # Distribution of time spent in the clock gated state
system.cpu0.power_state.ticksClkGated::min_value        36501                       # Distribution of time spent in the clock gated state
system.cpu0.power_state.ticksClkGated::max_value   3988558500                       # Distribution of time spent in the clock gated state
system.cpu0.power_state.ticksClkGated::total        12300                       # Distribution of time spent in the clock gated state
system.cpu0.power_state.pwrStateResidencyTicks::ON 438609718283                       # Cumulative time (in ticks) in various power states (Tick)
system.cpu0.power_state.pwrStateResidencyTicks::CLK_GATED 4611997980717                       # Cumulative time (in ticks) in various power states (Tick)
system.cpu0.thread_0.numInsts                       0                       # Number of Instructions committed (Count)
system.cpu0.thread_0.numOps                         0                       # Number of Ops committed (Count)
system.cpu0.thread_0.numMemRefs                     0                       # Number of Memory References (Count)
system.cpu1.numCycles                     10100849264                       # Number of cpu cycles simulated (Cycle)
system.cpu1.numWorkItemsStarted                     0                       # Number of work items this cpu started (Count)
system.cpu1.numWorkItemsCompleted                   0                       # Number of work items this cpu completed (Count)
system.cpu1.exec_context.thread_0.numInsts     16912486                       # Number of instructions committed (Count)
system.cpu1.exec_context.thread_0.numOps     35111337                       # Number of ops (including micro ops) committed (Count)
system.cpu1.exec_context.thread_0.numIntAluAccesses     34177126                       # Number of integer alu accesses (Count)
system.cpu1.exec_context.thread_0.numFpAluAccesses          911                       # Number of float alu accesses (Count)
system.cpu1.exec_context.thread_0.numVecAluAccesses            0                       # Number of vector alu accesses (Count)
system.cpu1.exec_context.thread_0.numCallsReturns       826830                       # Number of times a function call or return occured (Count)
system.cpu1.exec_context.thread_0.numCondCtrlInsts      2592506                       # Number of instructions that are conditional controls (Count)
system.cpu1.exec_context.thread_0.numIntInsts     34177126                       # Number of integer instructions (Count)
system.cpu1.exec_context.thread_0.numFpInsts          911                       # Number of float instructions (Count)
system.cpu1.exec_context.thread_0.numVecInsts            0                       # Number of vector instructions (Count)
system.cpu1.exec_context.thread_0.numIntRegReads     69282714                       # Number of times the integer registers were read (Count)
system.cpu1.exec_context.thread_0.numIntRegWrites     28066257                       # Number of times the integer registers were written (Count)
system.cpu1.exec_context.thread_0.numFpRegReads         1513                       # Number of times the floating registers were read (Count)
system.cpu1.exec_context.thread_0.numFpRegWrites          711                       # Number of times the floating registers were written (Count)
system.cpu1.exec_context.thread_0.numVecRegReads            0                       # Number of times the vector registers were read (Count)
system.cpu1.exec_context.thread_0.numVecRegWrites            0                       # Number of times the vector registers were written (Count)
system.cpu1.exec_context.thread_0.numVecPredRegReads            0                       # Number of times the predicate registers were read (Count)
system.cpu1.exec_context.thread_0.numVecPredRegWrites            0                       # Number of times the predicate registers were written (Count)
system.cpu1.exec_context.thread_0.numCCRegReads     20799834                       # Number of times the CC registers were read (Count)
system.cpu1.exec_context.thread_0.numCCRegWrites     11309600                       # Number of times the CC registers were written (Count)
system.cpu1.exec_context.thread_0.numMemRefs      8170831                       # Number of memory refs (Count)
system.cpu1.exec_context.thread_0.numLoadInsts      5126971                       # Number of load instructions (Count)
system.cpu1.exec_context.thread_0.numStoreInsts      3043860                       # Number of store instructions (Count)
system.cpu1.exec_context.thread_0.numIdleCycles 10021540909.756802                       # Number of idle cycles (Cycle)
system.cpu1.exec_context.thread_0.numBusyCycles 79308354.243198                       # Number of busy cycles (Cycle)
system.cpu1.exec_context.thread_0.notIdleFraction     0.007852                       # Percentage of non-idle cycles (Ratio)
system.cpu1.exec_context.thread_0.idleFraction     0.992148                       # Percentage of idle cycles (Ratio)
system.cpu1.exec_context.thread_0.numBranches      3747671                       # Number of branches fetched (Count)
system.cpu1.exec_context.thread_0.statExecutedInstType::No_OpClass       644982      1.84%      1.84% # Class of executed instruction. (Count)
system.cpu1.exec_context.thread_0.statExecutedInstType::IntAlu     26212199     74.65%     76.49% # Class of executed instruction. (Count)
system.cpu1.exec_context.thread_0.statExecutedInstType::IntMult        74389      0.21%     76.70% # Class of executed instruction. (Count)
system.cpu1.exec_context.thread_0.statExecutedInstType::IntDiv        14994      0.04%     76.75% # Class of executed instruction. (Count)
system.cpu1.exec_context.thread_0.statExecutedInstType::FloatAdd           13      0.00%     76.75% # Class of executed instruction. (Count)
system.cpu1.exec_context.thread_0.statExecutedInstType::FloatCmp            0      0.00%     76.75% # Class of executed instruction. (Count)
system.cpu1.exec_context.thread_0.statExecutedInstType::FloatCvt           16      0.00%     76.75% # Class of executed instruction. (Count)
system.cpu1.exec_context.thread_0.statExecutedInstType::FloatMult            0      0.00%     76.75% # Class of executed instruction. (Count)
system.cpu1.exec_context.thread_0.statExecutedInstType::FloatMultAcc            0      0.00%     76.75% # Class of executed instruction. (Count)
system.cpu1.exec_context.thread_0.statExecutedInstType::FloatDiv            0      0.00%     76.75% # Class of executed instruction. (Count)
system.cpu1.exec_context.thread_0.statExecutedInstType::FloatMisc            0      0.00%     76.75% # Class of executed instruction. (Count)
system.cpu1.exec_context.thread_0.statExecutedInstType::FloatSqrt            0      0.00%     76.75% # Class of executed instruction. (Count)
system.cpu1.exec_context.thread_0.statExecutedInstType::SimdAdd           50      0.00%     76.75% # Class of executed instruction. (Count)
system.cpu1.exec_context.thread_0.statExecutedInstType::SimdAddAcc            0      0.00%     76.75% # Class of executed instruction. (Count)
system.cpu1.exec_context.thread_0.statExecutedInstType::SimdAlu          114      0.00%     76.75% # Class of executed instruction. (Count)
system.cpu1.exec_context.thread_0.statExecutedInstType::SimdCmp            0      0.00%     76.75% # Class of executed instruction. (Count)
system.cpu1.exec_context.thread_0.statExecutedInstType::SimdCvt          196      0.00%     76.75% # Class of executed instruction. (Count)
system.cpu1.exec_context.thread_0.statExecutedInstType::SimdMisc          237      0.00%     76.75% # Class of executed instruction. (Count)
system.cpu1.exec_context.thread_0.statExecutedInstType::SimdMult            0      0.00%     76.75% # Class of executed instruction. (Count)
system.cpu1.exec_context.thread_0.statExecutedInstType::SimdMultAcc            0      0.00%     76.75% # Class of executed instruction. (Count)
system.cpu1.exec_context.thread_0.statExecutedInstType::SimdShift            0      0.00%     76.75% # Class of executed instruction. (Count)
system.cpu1.exec_context.thread_0.statExecutedInstType::SimdShiftAcc            0      0.00%     76.75% # Class of executed instruction. (Count)
system.cpu1.exec_context.thread_0.statExecutedInstType::SimdDiv            0      0.00%     76.75% # Class of executed instruction. (Count)
system.cpu1.exec_context.thread_0.statExecutedInstType::SimdSqrt            0      0.00%     76.75% # Class of executed instruction. (Count)
system.cpu1.exec_context.thread_0.statExecutedInstType::SimdFloatAdd            0      0.00%     76.75% # Class of executed instruction. (Count)
system.cpu1.exec_context.thread_0.statExecutedInstType::SimdFloatAlu            0      0.00%     76.75% # Class of executed instruction. (Count)
system.cpu1.exec_context.thread_0.statExecutedInstType::SimdFloatCmp            0      0.00%     76.75% # Class of executed instruction. (Count)
system.cpu1.exec_context.thread_0.statExecutedInstType::SimdFloatCvt            0      0.00%     76.75% # Class of executed instruction. (Count)
system.cpu1.exec_context.thread_0.statExecutedInstType::SimdFloatDiv            0      0.00%     76.75% # Class of executed instruction. (Count)
system.cpu1.exec_context.thread_0.statExecutedInstType::SimdFloatMisc            0      0.00%     76.75% # Class of executed instruction. (Count)
system.cpu1.exec_context.thread_0.statExecutedInstType::SimdFloatMult            0      0.00%     76.75% # Class of executed instruction. (Count)
system.cpu1.exec_context.thread_0.statExecutedInstType::SimdFloatMultAcc            0      0.00%     76.75% # Class of executed instruction. (Count)
system.cpu1.exec_context.thread_0.statExecutedInstType::SimdFloatSqrt            0      0.00%     76.75% # Class of executed instruction. (Count)
system.cpu1.exec_context.thread_0.statExecutedInstType::SimdReduceAdd            0      0.00%     76.75% # Class of executed instruction. (Count)
system.cpu1.exec_context.thread_0.statExecutedInstType::SimdReduceAlu            0      0.00%     76.75% # Class of executed instruction. (Count)
system.cpu1.exec_context.thread_0.statExecutedInstType::SimdReduceCmp            0      0.00%     76.75% # Class of executed instruction. (Count)
system.cpu1.exec_context.thread_0.statExecutedInstType::SimdFloatReduceAdd            0      0.00%     76.75% # Class of executed instruction. (Count)
system.cpu1.exec_context.thread_0.statExecutedInstType::SimdFloatReduceCmp            0      0.00%     76.75% # Class of executed instruction. (Count)
system.cpu1.exec_context.thread_0.statExecutedInstType::SimdAes            0      0.00%     76.75% # Class of executed instruction. (Count)
system.cpu1.exec_context.thread_0.statExecutedInstType::SimdAesMix            0      0.00%     76.75% # Class of executed instruction. (Count)
system.cpu1.exec_context.thread_0.statExecutedInstType::SimdSha1Hash            0      0.00%     76.75% # Class of executed instruction. (Count)
system.cpu1.exec_context.thread_0.statExecutedInstType::SimdSha1Hash2            0      0.00%     76.75% # Class of executed instruction. (Count)
system.cpu1.exec_context.thread_0.statExecutedInstType::SimdSha256Hash            0      0.00%     76.75% # Class of executed instruction. (Count)
system.cpu1.exec_context.thread_0.statExecutedInstType::SimdSha256Hash2            0      0.00%     76.75% # Class of executed instruction. (Count)
system.cpu1.exec_context.thread_0.statExecutedInstType::SimdShaSigma2            0      0.00%     76.75% # Class of executed instruction. (Count)
system.cpu1.exec_context.thread_0.statExecutedInstType::SimdShaSigma3            0      0.00%     76.75% # Class of executed instruction. (Count)
system.cpu1.exec_context.thread_0.statExecutedInstType::SimdPredAlu            0      0.00%     76.75% # Class of executed instruction. (Count)
system.cpu1.exec_context.thread_0.statExecutedInstType::MemRead      5120177     14.58%     91.33% # Class of executed instruction. (Count)
system.cpu1.exec_context.thread_0.statExecutedInstType::MemWrite      3043828      8.67%    100.00% # Class of executed instruction. (Count)
system.cpu1.exec_context.thread_0.statExecutedInstType::FloatMemRead          174      0.00%    100.00% # Class of executed instruction. (Count)
system.cpu1.exec_context.thread_0.statExecutedInstType::FloatMemWrite           32      0.00%    100.00% # Class of executed instruction. (Count)
system.cpu1.exec_context.thread_0.statExecutedInstType::IprAccess            0      0.00%    100.00% # Class of executed instruction. (Count)
system.cpu1.exec_context.thread_0.statExecutedInstType::InstPrefetch            0      0.00%    100.00% # Class of executed instruction. (Count)
system.cpu1.exec_context.thread_0.statExecutedInstType::total     35111401                       # Class of executed instruction. (Count)
system.cpu1.interrupts.clk_domain.clock          8000                       # Clock period in ticks (Tick)
system.cpu1.mmu.dtb.rdAccesses                5134763                       # TLB accesses on read requests (Count)
system.cpu1.mmu.dtb.wrAccesses                3051495                       # TLB accesses on write requests (Count)
system.cpu1.mmu.dtb.rdMisses                      116                       # TLB misses on read requests (Count)
system.cpu1.mmu.dtb.wrMisses                       71                       # TLB misses on write requests (Count)
system.cpu1.mmu.dtb.walker.power_state.pwrStateResidencyTicks::UNDEFINED 5050607699000                       # Cumulative time (in ticks) in various power states (Tick)
system.cpu1.mmu.itb.rdAccesses                      0                       # TLB accesses on read requests (Count)
system.cpu1.mmu.itb.wrAccesses               22653864                       # TLB accesses on write requests (Count)
system.cpu1.mmu.itb.rdMisses                        0                       # TLB misses on read requests (Count)
system.cpu1.mmu.itb.wrMisses                      250                       # TLB misses on write requests (Count)
system.cpu1.mmu.itb.walker.power_state.pwrStateResidencyTicks::UNDEFINED 5050607699000                       # Cumulative time (in ticks) in various power states (Tick)
system.cpu1.power_state.numTransitions           6702                       # Number of power state transitions (Count)
system.cpu1.power_state.ticksClkGated::samples         3344                       # Distribution of time spent in the clock gated state
system.cpu1.power_state.ticksClkGated::mean 1396045959.629187                       # Distribution of time spent in the clock gated state
system.cpu1.power_state.ticksClkGated::stdev 1870317866.020717                       # Distribution of time spent in the clock gated state
system.cpu1.power_state.ticksClkGated::1000-5e+10         3344    100.00%    100.00% # Distribution of time spent in the clock gated state
system.cpu1.power_state.ticksClkGated::min_value       185000                       # Distribution of time spent in the clock gated state
system.cpu1.power_state.ticksClkGated::max_value  10001498000                       # Distribution of time spent in the clock gated state
system.cpu1.power_state.ticksClkGated::total         3344                       # Distribution of time spent in the clock gated state
system.cpu1.power_state.pwrStateResidencyTicks::ON 382230010000                       # Cumulative time (in ticks) in various power states (Tick)
system.cpu1.power_state.pwrStateResidencyTicks::CLK_GATED 4668377689000                       # Cumulative time (in ticks) in various power states (Tick)
system.cpu1.thread_0.numInsts                       0                       # Number of Instructions committed (Count)
system.cpu1.thread_0.numOps                         0                       # Number of Ops committed (Count)
system.cpu1.thread_0.numMemRefs                     0                       # Number of Memory References (Count)
system.cpu10.numCycles                    10093504252                       # Number of cpu cycles simulated (Cycle)
system.cpu10.numWorkItemsStarted                    0                       # Number of work items this cpu started (Count)
system.cpu10.numWorkItemsCompleted                  0                       # Number of work items this cpu completed (Count)
system.cpu10.exec_context.thread_0.numInsts      6233198                       # Number of instructions committed (Count)
system.cpu10.exec_context.thread_0.numOps     12255398                       # Number of ops (including micro ops) committed (Count)
system.cpu10.exec_context.thread_0.numIntAluAccesses     12072069                       # Number of integer alu accesses (Count)
system.cpu10.exec_context.thread_0.numFpAluAccesses           48                       # Number of float alu accesses (Count)
system.cpu10.exec_context.thread_0.numVecAluAccesses            0                       # Number of vector alu accesses (Count)
system.cpu10.exec_context.thread_0.numCallsReturns       285315                       # Number of times a function call or return occured (Count)
system.cpu10.exec_context.thread_0.numCondCtrlInsts       865944                       # Number of instructions that are conditional controls (Count)
system.cpu10.exec_context.thread_0.numIntInsts     12072069                       # Number of integer instructions (Count)
system.cpu10.exec_context.thread_0.numFpInsts           48                       # Number of float instructions (Count)
system.cpu10.exec_context.thread_0.numVecInsts            0                       # Number of vector instructions (Count)
system.cpu10.exec_context.thread_0.numIntRegReads     23454109                       # Number of times the integer registers were read (Count)
system.cpu10.exec_context.thread_0.numIntRegWrites     10081459                       # Number of times the integer registers were written (Count)
system.cpu10.exec_context.thread_0.numFpRegReads           48                       # Number of times the floating registers were read (Count)
system.cpu10.exec_context.thread_0.numFpRegWrites            0                       # Number of times the floating registers were written (Count)
system.cpu10.exec_context.thread_0.numVecRegReads            0                       # Number of times the vector registers were read (Count)
system.cpu10.exec_context.thread_0.numVecRegWrites            0                       # Number of times the vector registers were written (Count)
system.cpu10.exec_context.thread_0.numVecPredRegReads            0                       # Number of times the predicate registers were read (Count)
system.cpu10.exec_context.thread_0.numVecPredRegWrites            0                       # Number of times the predicate registers were written (Count)
system.cpu10.exec_context.thread_0.numCCRegReads      8056175                       # Number of times the CC registers were read (Count)
system.cpu10.exec_context.thread_0.numCCRegWrites      4334484                       # Number of times the CC registers were written (Count)
system.cpu10.exec_context.thread_0.numMemRefs      2497361                       # Number of memory refs (Count)
system.cpu10.exec_context.thread_0.numLoadInsts      1719556                       # Number of load instructions (Count)
system.cpu10.exec_context.thread_0.numStoreInsts       777805                       # Number of store instructions (Count)
system.cpu10.exec_context.thread_0.numIdleCycles 10067679064.697916                       # Number of idle cycles (Cycle)
system.cpu10.exec_context.thread_0.numBusyCycles 25825187.302083                       # Number of busy cycles (Cycle)
system.cpu10.exec_context.thread_0.notIdleFraction     0.002559                       # Percentage of non-idle cycles (Ratio)
system.cpu10.exec_context.thread_0.idleFraction     0.997441                       # Percentage of idle cycles (Ratio)
system.cpu10.exec_context.thread_0.numBranches      1279375                       # Number of branches fetched (Count)
system.cpu10.exec_context.thread_0.statExecutedInstType::No_OpClass        63412      0.52%      0.52% # Class of executed instruction. (Count)
system.cpu10.exec_context.thread_0.statExecutedInstType::IntAlu      9666932     78.88%     79.40% # Class of executed instruction. (Count)
system.cpu10.exec_context.thread_0.statExecutedInstType::IntMult        29749      0.24%     79.64% # Class of executed instruction. (Count)
system.cpu10.exec_context.thread_0.statExecutedInstType::IntDiv          422      0.00%     79.64% # Class of executed instruction. (Count)
system.cpu10.exec_context.thread_0.statExecutedInstType::FloatAdd            0      0.00%     79.64% # Class of executed instruction. (Count)
system.cpu10.exec_context.thread_0.statExecutedInstType::FloatCmp            0      0.00%     79.64% # Class of executed instruction. (Count)
system.cpu10.exec_context.thread_0.statExecutedInstType::FloatCvt           16      0.00%     79.64% # Class of executed instruction. (Count)
system.cpu10.exec_context.thread_0.statExecutedInstType::FloatMult            0      0.00%     79.64% # Class of executed instruction. (Count)
system.cpu10.exec_context.thread_0.statExecutedInstType::FloatMultAcc            0      0.00%     79.64% # Class of executed instruction. (Count)
system.cpu10.exec_context.thread_0.statExecutedInstType::FloatDiv            0      0.00%     79.64% # Class of executed instruction. (Count)
system.cpu10.exec_context.thread_0.statExecutedInstType::FloatMisc            0      0.00%     79.64% # Class of executed instruction. (Count)
system.cpu10.exec_context.thread_0.statExecutedInstType::FloatSqrt            0      0.00%     79.64% # Class of executed instruction. (Count)
system.cpu10.exec_context.thread_0.statExecutedInstType::SimdAdd            0      0.00%     79.64% # Class of executed instruction. (Count)
system.cpu10.exec_context.thread_0.statExecutedInstType::SimdAddAcc            0      0.00%     79.64% # Class of executed instruction. (Count)
system.cpu10.exec_context.thread_0.statExecutedInstType::SimdAlu            0      0.00%     79.64% # Class of executed instruction. (Count)
system.cpu10.exec_context.thread_0.statExecutedInstType::SimdCmp            0      0.00%     79.64% # Class of executed instruction. (Count)
system.cpu10.exec_context.thread_0.statExecutedInstType::SimdCvt            0      0.00%     79.64% # Class of executed instruction. (Count)
system.cpu10.exec_context.thread_0.statExecutedInstType::SimdMisc            0      0.00%     79.64% # Class of executed instruction. (Count)
system.cpu10.exec_context.thread_0.statExecutedInstType::SimdMult            0      0.00%     79.64% # Class of executed instruction. (Count)
system.cpu10.exec_context.thread_0.statExecutedInstType::SimdMultAcc            0      0.00%     79.64% # Class of executed instruction. (Count)
system.cpu10.exec_context.thread_0.statExecutedInstType::SimdShift            0      0.00%     79.64% # Class of executed instruction. (Count)
system.cpu10.exec_context.thread_0.statExecutedInstType::SimdShiftAcc            0      0.00%     79.64% # Class of executed instruction. (Count)
system.cpu10.exec_context.thread_0.statExecutedInstType::SimdDiv            0      0.00%     79.64% # Class of executed instruction. (Count)
system.cpu10.exec_context.thread_0.statExecutedInstType::SimdSqrt            0      0.00%     79.64% # Class of executed instruction. (Count)
system.cpu10.exec_context.thread_0.statExecutedInstType::SimdFloatAdd            0      0.00%     79.64% # Class of executed instruction. (Count)
system.cpu10.exec_context.thread_0.statExecutedInstType::SimdFloatAlu            0      0.00%     79.64% # Class of executed instruction. (Count)
system.cpu10.exec_context.thread_0.statExecutedInstType::SimdFloatCmp            0      0.00%     79.64% # Class of executed instruction. (Count)
system.cpu10.exec_context.thread_0.statExecutedInstType::SimdFloatCvt            0      0.00%     79.64% # Class of executed instruction. (Count)
system.cpu10.exec_context.thread_0.statExecutedInstType::SimdFloatDiv            0      0.00%     79.64% # Class of executed instruction. (Count)
system.cpu10.exec_context.thread_0.statExecutedInstType::SimdFloatMisc            0      0.00%     79.64% # Class of executed instruction. (Count)
system.cpu10.exec_context.thread_0.statExecutedInstType::SimdFloatMult            0      0.00%     79.64% # Class of executed instruction. (Count)
system.cpu10.exec_context.thread_0.statExecutedInstType::SimdFloatMultAcc            0      0.00%     79.64% # Class of executed instruction. (Count)
system.cpu10.exec_context.thread_0.statExecutedInstType::SimdFloatSqrt            0      0.00%     79.64% # Class of executed instruction. (Count)
system.cpu10.exec_context.thread_0.statExecutedInstType::SimdReduceAdd            0      0.00%     79.64% # Class of executed instruction. (Count)
system.cpu10.exec_context.thread_0.statExecutedInstType::SimdReduceAlu            0      0.00%     79.64% # Class of executed instruction. (Count)
system.cpu10.exec_context.thread_0.statExecutedInstType::SimdReduceCmp            0      0.00%     79.64% # Class of executed instruction. (Count)
system.cpu10.exec_context.thread_0.statExecutedInstType::SimdFloatReduceAdd            0      0.00%     79.64% # Class of executed instruction. (Count)
system.cpu10.exec_context.thread_0.statExecutedInstType::SimdFloatReduceCmp            0      0.00%     79.64% # Class of executed instruction. (Count)
system.cpu10.exec_context.thread_0.statExecutedInstType::SimdAes            0      0.00%     79.64% # Class of executed instruction. (Count)
system.cpu10.exec_context.thread_0.statExecutedInstType::SimdAesMix            0      0.00%     79.64% # Class of executed instruction. (Count)
system.cpu10.exec_context.thread_0.statExecutedInstType::SimdSha1Hash            0      0.00%     79.64% # Class of executed instruction. (Count)
system.cpu10.exec_context.thread_0.statExecutedInstType::SimdSha1Hash2            0      0.00%     79.64% # Class of executed instruction. (Count)
system.cpu10.exec_context.thread_0.statExecutedInstType::SimdSha256Hash            0      0.00%     79.64% # Class of executed instruction. (Count)
system.cpu10.exec_context.thread_0.statExecutedInstType::SimdSha256Hash2            0      0.00%     79.64% # Class of executed instruction. (Count)
system.cpu10.exec_context.thread_0.statExecutedInstType::SimdShaSigma2            0      0.00%     79.64% # Class of executed instruction. (Count)
system.cpu10.exec_context.thread_0.statExecutedInstType::SimdShaSigma3            0      0.00%     79.64% # Class of executed instruction. (Count)
system.cpu10.exec_context.thread_0.statExecutedInstType::SimdPredAlu            0      0.00%     79.64% # Class of executed instruction. (Count)
system.cpu10.exec_context.thread_0.statExecutedInstType::MemRead      1717062     14.01%     93.65% # Class of executed instruction. (Count)
system.cpu10.exec_context.thread_0.statExecutedInstType::MemWrite       777773      6.35%    100.00% # Class of executed instruction. (Count)
system.cpu10.exec_context.thread_0.statExecutedInstType::FloatMemRead            0      0.00%    100.00% # Class of executed instruction. (Count)
system.cpu10.exec_context.thread_0.statExecutedInstType::FloatMemWrite           32      0.00%    100.00% # Class of executed instruction. (Count)
system.cpu10.exec_context.thread_0.statExecutedInstType::IprAccess            0      0.00%    100.00% # Class of executed instruction. (Count)
system.cpu10.exec_context.thread_0.statExecutedInstType::InstPrefetch            0      0.00%    100.00% # Class of executed instruction. (Count)
system.cpu10.exec_context.thread_0.statExecutedInstType::total     12255398                       # Class of executed instruction. (Count)
system.cpu10.interrupts.clk_domain.clock         8000                       # Clock period in ticks (Tick)
system.cpu10.mmu.dtb.rdAccesses               1723164                       # TLB accesses on read requests (Count)
system.cpu10.mmu.dtb.wrAccesses                781409                       # TLB accesses on write requests (Count)
system.cpu10.mmu.dtb.rdMisses                      20                       # TLB misses on read requests (Count)
system.cpu10.mmu.dtb.wrMisses                       3                       # TLB misses on write requests (Count)
system.cpu10.mmu.dtb.walker.power_state.pwrStateResidencyTicks::UNDEFINED 5050607699000                       # Cumulative time (in ticks) in various power states (Tick)
system.cpu10.mmu.itb.rdAccesses                     0                       # TLB accesses on read requests (Count)
system.cpu10.mmu.itb.wrAccesses               8524772                       # TLB accesses on write requests (Count)
system.cpu10.mmu.itb.rdMisses                       0                       # TLB misses on read requests (Count)
system.cpu10.mmu.itb.wrMisses                       8                       # TLB misses on write requests (Count)
system.cpu10.mmu.itb.walker.power_state.pwrStateResidencyTicks::UNDEFINED 5050607699000                       # Cumulative time (in ticks) in various power states (Tick)
system.cpu10.power_state.numTransitions          2496                       # Number of power state transitions (Count)
system.cpu10.power_state.ticksClkGated::samples         1249                       # Distribution of time spent in the clock gated state
system.cpu10.power_state.ticksClkGated::mean 3674349239.391513                       # Distribution of time spent in the clock gated state
system.cpu10.power_state.ticksClkGated::stdev 1062176171.653435                       # Distribution of time spent in the clock gated state
system.cpu10.power_state.ticksClkGated::1000-5e+10         1249    100.00%    100.00% # Distribution of time spent in the clock gated state
system.cpu10.power_state.ticksClkGated::min_value       424500                       # Distribution of time spent in the clock gated state
system.cpu10.power_state.ticksClkGated::max_value  10001330000                       # Distribution of time spent in the clock gated state
system.cpu10.power_state.ticksClkGated::total         1249                       # Distribution of time spent in the clock gated state
system.cpu10.power_state.pwrStateResidencyTicks::ON 461345499000                       # Cumulative time (in ticks) in various power states (Tick)
system.cpu10.power_state.pwrStateResidencyTicks::CLK_GATED 4589262200000                       # Cumulative time (in ticks) in various power states (Tick)
system.cpu10.thread_0.numInsts                      0                       # Number of Instructions committed (Count)
system.cpu10.thread_0.numOps                        0                       # Number of Ops committed (Count)
system.cpu10.thread_0.numMemRefs                    0                       # Number of Memory References (Count)
system.cpu11.numCycles                    10101016004                       # Number of cpu cycles simulated (Cycle)
system.cpu11.numWorkItemsStarted                    0                       # Number of work items this cpu started (Count)
system.cpu11.numWorkItemsCompleted                  0                       # Number of work items this cpu completed (Count)
system.cpu11.exec_context.thread_0.numInsts      6233898                       # Number of instructions committed (Count)
system.cpu11.exec_context.thread_0.numOps     12256148                       # Number of ops (including micro ops) committed (Count)
system.cpu11.exec_context.thread_0.numIntAluAccesses     12072906                       # Number of integer alu accesses (Count)
system.cpu11.exec_context.thread_0.numFpAluAccesses           48                       # Number of float alu accesses (Count)
system.cpu11.exec_context.thread_0.numVecAluAccesses            0                       # Number of vector alu accesses (Count)
system.cpu11.exec_context.thread_0.numCallsReturns       285299                       # Number of times a function call or return occured (Count)
system.cpu11.exec_context.thread_0.numCondCtrlInsts       866058                       # Number of instructions that are conditional controls (Count)
system.cpu11.exec_context.thread_0.numIntInsts     12072906                       # Number of integer instructions (Count)
system.cpu11.exec_context.thread_0.numFpInsts           48                       # Number of float instructions (Count)
system.cpu11.exec_context.thread_0.numVecInsts            0                       # Number of vector instructions (Count)
system.cpu11.exec_context.thread_0.numIntRegReads     23455875                       # Number of times the integer registers were read (Count)
system.cpu11.exec_context.thread_0.numIntRegWrites     10082231                       # Number of times the integer registers were written (Count)
system.cpu11.exec_context.thread_0.numFpRegReads           48                       # Number of times the floating registers were read (Count)
system.cpu11.exec_context.thread_0.numFpRegWrites            0                       # Number of times the floating registers were written (Count)
system.cpu11.exec_context.thread_0.numVecRegReads            0                       # Number of times the vector registers were read (Count)
system.cpu11.exec_context.thread_0.numVecRegWrites            0                       # Number of times the vector registers were written (Count)
system.cpu11.exec_context.thread_0.numVecPredRegReads            0                       # Number of times the predicate registers were read (Count)
system.cpu11.exec_context.thread_0.numVecPredRegWrites            0                       # Number of times the predicate registers were written (Count)
system.cpu11.exec_context.thread_0.numCCRegReads      8058127                       # Number of times the CC registers were read (Count)
system.cpu11.exec_context.thread_0.numCCRegWrites      4335066                       # Number of times the CC registers were written (Count)
system.cpu11.exec_context.thread_0.numMemRefs      2497270                       # Number of memory refs (Count)
system.cpu11.exec_context.thread_0.numLoadInsts      1719496                       # Number of load instructions (Count)
system.cpu11.exec_context.thread_0.numStoreInsts       777774                       # Number of store instructions (Count)
system.cpu11.exec_context.thread_0.numIdleCycles 10075153436.526943                       # Number of idle cycles (Cycle)
system.cpu11.exec_context.thread_0.numBusyCycles 25862567.473056                       # Number of busy cycles (Cycle)
system.cpu11.exec_context.thread_0.notIdleFraction     0.002560                       # Percentage of non-idle cycles (Ratio)
system.cpu11.exec_context.thread_0.idleFraction     0.997440                       # Percentage of idle cycles (Ratio)
system.cpu11.exec_context.thread_0.numBranches      1279488                       # Number of branches fetched (Count)
system.cpu11.exec_context.thread_0.statExecutedInstType::No_OpClass        63417      0.52%      0.52% # Class of executed instruction. (Count)
system.cpu11.exec_context.thread_0.statExecutedInstType::IntAlu      9667754     78.88%     79.40% # Class of executed instruction. (Count)
system.cpu11.exec_context.thread_0.statExecutedInstType::IntMult        29747      0.24%     79.64% # Class of executed instruction. (Count)
system.cpu11.exec_context.thread_0.statExecutedInstType::IntDiv          436      0.00%     79.64% # Class of executed instruction. (Count)
system.cpu11.exec_context.thread_0.statExecutedInstType::FloatAdd            0      0.00%     79.64% # Class of executed instruction. (Count)
system.cpu11.exec_context.thread_0.statExecutedInstType::FloatCmp            0      0.00%     79.64% # Class of executed instruction. (Count)
system.cpu11.exec_context.thread_0.statExecutedInstType::FloatCvt           16      0.00%     79.64% # Class of executed instruction. (Count)
system.cpu11.exec_context.thread_0.statExecutedInstType::FloatMult            0      0.00%     79.64% # Class of executed instruction. (Count)
system.cpu11.exec_context.thread_0.statExecutedInstType::FloatMultAcc            0      0.00%     79.64% # Class of executed instruction. (Count)
system.cpu11.exec_context.thread_0.statExecutedInstType::FloatDiv            0      0.00%     79.64% # Class of executed instruction. (Count)
system.cpu11.exec_context.thread_0.statExecutedInstType::FloatMisc            0      0.00%     79.64% # Class of executed instruction. (Count)
system.cpu11.exec_context.thread_0.statExecutedInstType::FloatSqrt            0      0.00%     79.64% # Class of executed instruction. (Count)
system.cpu11.exec_context.thread_0.statExecutedInstType::SimdAdd            0      0.00%     79.64% # Class of executed instruction. (Count)
system.cpu11.exec_context.thread_0.statExecutedInstType::SimdAddAcc            0      0.00%     79.64% # Class of executed instruction. (Count)
system.cpu11.exec_context.thread_0.statExecutedInstType::SimdAlu            0      0.00%     79.64% # Class of executed instruction. (Count)
system.cpu11.exec_context.thread_0.statExecutedInstType::SimdCmp            0      0.00%     79.64% # Class of executed instruction. (Count)
system.cpu11.exec_context.thread_0.statExecutedInstType::SimdCvt            0      0.00%     79.64% # Class of executed instruction. (Count)
system.cpu11.exec_context.thread_0.statExecutedInstType::SimdMisc            0      0.00%     79.64% # Class of executed instruction. (Count)
system.cpu11.exec_context.thread_0.statExecutedInstType::SimdMult            0      0.00%     79.64% # Class of executed instruction. (Count)
system.cpu11.exec_context.thread_0.statExecutedInstType::SimdMultAcc            0      0.00%     79.64% # Class of executed instruction. (Count)
system.cpu11.exec_context.thread_0.statExecutedInstType::SimdShift            0      0.00%     79.64% # Class of executed instruction. (Count)
system.cpu11.exec_context.thread_0.statExecutedInstType::SimdShiftAcc            0      0.00%     79.64% # Class of executed instruction. (Count)
system.cpu11.exec_context.thread_0.statExecutedInstType::SimdDiv            0      0.00%     79.64% # Class of executed instruction. (Count)
system.cpu11.exec_context.thread_0.statExecutedInstType::SimdSqrt            0      0.00%     79.64% # Class of executed instruction. (Count)
system.cpu11.exec_context.thread_0.statExecutedInstType::SimdFloatAdd            0      0.00%     79.64% # Class of executed instruction. (Count)
system.cpu11.exec_context.thread_0.statExecutedInstType::SimdFloatAlu            0      0.00%     79.64% # Class of executed instruction. (Count)
system.cpu11.exec_context.thread_0.statExecutedInstType::SimdFloatCmp            0      0.00%     79.64% # Class of executed instruction. (Count)
system.cpu11.exec_context.thread_0.statExecutedInstType::SimdFloatCvt            0      0.00%     79.64% # Class of executed instruction. (Count)
system.cpu11.exec_context.thread_0.statExecutedInstType::SimdFloatDiv            0      0.00%     79.64% # Class of executed instruction. (Count)
system.cpu11.exec_context.thread_0.statExecutedInstType::SimdFloatMisc            0      0.00%     79.64% # Class of executed instruction. (Count)
system.cpu11.exec_context.thread_0.statExecutedInstType::SimdFloatMult            0      0.00%     79.64% # Class of executed instruction. (Count)
system.cpu11.exec_context.thread_0.statExecutedInstType::SimdFloatMultAcc            0      0.00%     79.64% # Class of executed instruction. (Count)
system.cpu11.exec_context.thread_0.statExecutedInstType::SimdFloatSqrt            0      0.00%     79.64% # Class of executed instruction. (Count)
system.cpu11.exec_context.thread_0.statExecutedInstType::SimdReduceAdd            0      0.00%     79.64% # Class of executed instruction. (Count)
system.cpu11.exec_context.thread_0.statExecutedInstType::SimdReduceAlu            0      0.00%     79.64% # Class of executed instruction. (Count)
system.cpu11.exec_context.thread_0.statExecutedInstType::SimdReduceCmp            0      0.00%     79.64% # Class of executed instruction. (Count)
system.cpu11.exec_context.thread_0.statExecutedInstType::SimdFloatReduceAdd            0      0.00%     79.64% # Class of executed instruction. (Count)
system.cpu11.exec_context.thread_0.statExecutedInstType::SimdFloatReduceCmp            0      0.00%     79.64% # Class of executed instruction. (Count)
system.cpu11.exec_context.thread_0.statExecutedInstType::SimdAes            0      0.00%     79.64% # Class of executed instruction. (Count)
system.cpu11.exec_context.thread_0.statExecutedInstType::SimdAesMix            0      0.00%     79.64% # Class of executed instruction. (Count)
system.cpu11.exec_context.thread_0.statExecutedInstType::SimdSha1Hash            0      0.00%     79.64% # Class of executed instruction. (Count)
system.cpu11.exec_context.thread_0.statExecutedInstType::SimdSha1Hash2            0      0.00%     79.64% # Class of executed instruction. (Count)
system.cpu11.exec_context.thread_0.statExecutedInstType::SimdSha256Hash            0      0.00%     79.64% # Class of executed instruction. (Count)
system.cpu11.exec_context.thread_0.statExecutedInstType::SimdSha256Hash2            0      0.00%     79.64% # Class of executed instruction. (Count)
system.cpu11.exec_context.thread_0.statExecutedInstType::SimdShaSigma2            0      0.00%     79.64% # Class of executed instruction. (Count)
system.cpu11.exec_context.thread_0.statExecutedInstType::SimdShaSigma3            0      0.00%     79.64% # Class of executed instruction. (Count)
system.cpu11.exec_context.thread_0.statExecutedInstType::SimdPredAlu            0      0.00%     79.64% # Class of executed instruction. (Count)
system.cpu11.exec_context.thread_0.statExecutedInstType::MemRead      1717004     14.01%     93.65% # Class of executed instruction. (Count)
system.cpu11.exec_context.thread_0.statExecutedInstType::MemWrite       777742      6.35%    100.00% # Class of executed instruction. (Count)
system.cpu11.exec_context.thread_0.statExecutedInstType::FloatMemRead            0      0.00%    100.00% # Class of executed instruction. (Count)
system.cpu11.exec_context.thread_0.statExecutedInstType::FloatMemWrite           32      0.00%    100.00% # Class of executed instruction. (Count)
system.cpu11.exec_context.thread_0.statExecutedInstType::IprAccess            0      0.00%    100.00% # Class of executed instruction. (Count)
system.cpu11.exec_context.thread_0.statExecutedInstType::InstPrefetch            0      0.00%    100.00% # Class of executed instruction. (Count)
system.cpu11.exec_context.thread_0.statExecutedInstType::total     12256148                       # Class of executed instruction. (Count)
system.cpu11.interrupts.clk_domain.clock         8000                       # Clock period in ticks (Tick)
system.cpu11.mmu.dtb.rdAccesses               1723100                       # TLB accesses on read requests (Count)
system.cpu11.mmu.dtb.wrAccesses                781374                       # TLB accesses on write requests (Count)
system.cpu11.mmu.dtb.rdMisses                      20                       # TLB misses on read requests (Count)
system.cpu11.mmu.dtb.wrMisses                       3                       # TLB misses on write requests (Count)
system.cpu11.mmu.dtb.walker.power_state.pwrStateResidencyTicks::UNDEFINED 5050607699000                       # Cumulative time (in ticks) in various power states (Tick)
system.cpu11.mmu.itb.rdAccesses                     0                       # TLB accesses on read requests (Count)
system.cpu11.mmu.itb.wrAccesses               8525830                       # TLB accesses on write requests (Count)
system.cpu11.mmu.itb.rdMisses                       0                       # TLB misses on read requests (Count)
system.cpu11.mmu.itb.wrMisses                       8                       # TLB misses on write requests (Count)
system.cpu11.mmu.itb.walker.power_state.pwrStateResidencyTicks::UNDEFINED 5050607699000                       # Cumulative time (in ticks) in various power states (Tick)
system.cpu11.power_state.numTransitions          2494                       # Number of power state transitions (Count)
system.cpu11.power_state.ticksClkGated::samples         1248                       # Distribution of time spent in the clock gated state
system.cpu11.power_state.ticksClkGated::mean 3667867321.714744                       # Distribution of time spent in the clock gated state
system.cpu11.power_state.ticksClkGated::stdev 1071547023.351218                       # Distribution of time spent in the clock gated state
system.cpu11.power_state.ticksClkGated::1000-5e+10         1248    100.00%    100.00% # Distribution of time spent in the clock gated state
system.cpu11.power_state.ticksClkGated::min_value       660000                       # Distribution of time spent in the clock gated state
system.cpu11.power_state.ticksClkGated::max_value  10001274000                       # Distribution of time spent in the clock gated state
system.cpu11.power_state.ticksClkGated::total         1248                       # Distribution of time spent in the clock gated state
system.cpu11.power_state.pwrStateResidencyTicks::ON 473109281500                       # Cumulative time (in ticks) in various power states (Tick)
system.cpu11.power_state.pwrStateResidencyTicks::CLK_GATED 4577498417500                       # Cumulative time (in ticks) in various power states (Tick)
system.cpu11.thread_0.numInsts                      0                       # Number of Instructions committed (Count)
system.cpu11.thread_0.numOps                        0                       # Number of Ops committed (Count)
system.cpu11.thread_0.numMemRefs                    0                       # Number of Memory References (Count)
system.cpu12.numCycles                    10100544717                       # Number of cpu cycles simulated (Cycle)
system.cpu12.numWorkItemsStarted                    0                       # Number of work items this cpu started (Count)
system.cpu12.numWorkItemsCompleted                  0                       # Number of work items this cpu completed (Count)
system.cpu12.exec_context.thread_0.numInsts      6230240                       # Number of instructions committed (Count)
system.cpu12.exec_context.thread_0.numOps     12248662                       # Number of ops (including micro ops) committed (Count)
system.cpu12.exec_context.thread_0.numIntAluAccesses     12065455                       # Number of integer alu accesses (Count)
system.cpu12.exec_context.thread_0.numFpAluAccesses           48                       # Number of float alu accesses (Count)
system.cpu12.exec_context.thread_0.numVecAluAccesses            0                       # Number of vector alu accesses (Count)
system.cpu12.exec_context.thread_0.numCallsReturns       285005                       # Number of times a function call or return occured (Count)
system.cpu12.exec_context.thread_0.numCondCtrlInsts       865779                       # Number of instructions that are conditional controls (Count)
system.cpu12.exec_context.thread_0.numIntInsts     12065455                       # Number of integer instructions (Count)
system.cpu12.exec_context.thread_0.numFpInsts           48                       # Number of float instructions (Count)
system.cpu12.exec_context.thread_0.numVecInsts            0                       # Number of vector instructions (Count)
system.cpu12.exec_context.thread_0.numIntRegReads     23440431                       # Number of times the integer registers were read (Count)
system.cpu12.exec_context.thread_0.numIntRegWrites     10076237                       # Number of times the integer registers were written (Count)
system.cpu12.exec_context.thread_0.numFpRegReads           48                       # Number of times the floating registers were read (Count)
system.cpu12.exec_context.thread_0.numFpRegWrites            0                       # Number of times the floating registers were written (Count)
system.cpu12.exec_context.thread_0.numVecRegReads            0                       # Number of times the vector registers were read (Count)
system.cpu12.exec_context.thread_0.numVecRegWrites            0                       # Number of times the vector registers were written (Count)
system.cpu12.exec_context.thread_0.numVecPredRegReads            0                       # Number of times the predicate registers were read (Count)
system.cpu12.exec_context.thread_0.numVecPredRegWrites            0                       # Number of times the predicate registers were written (Count)
system.cpu12.exec_context.thread_0.numCCRegReads      8055358                       # Number of times the CC registers were read (Count)
system.cpu12.exec_context.thread_0.numCCRegWrites      4332932                       # Number of times the CC registers were written (Count)
system.cpu12.exec_context.thread_0.numMemRefs      2495194                       # Number of memory refs (Count)
system.cpu12.exec_context.thread_0.numLoadInsts      1718238                       # Number of load instructions (Count)
system.cpu12.exec_context.thread_0.numStoreInsts       776956                       # Number of store instructions (Count)
system.cpu12.exec_context.thread_0.numIdleCycles 10074724704.461185                       # Number of idle cycles (Cycle)
system.cpu12.exec_context.thread_0.numBusyCycles 25820012.538813                       # Number of busy cycles (Cycle)
system.cpu12.exec_context.thread_0.notIdleFraction     0.002556                       # Percentage of non-idle cycles (Ratio)
system.cpu12.exec_context.thread_0.idleFraction     0.997444                       # Percentage of idle cycles (Ratio)
system.cpu12.exec_context.thread_0.numBranches      1278812                       # Number of branches fetched (Count)
system.cpu12.exec_context.thread_0.statExecutedInstType::No_OpClass        63368      0.52%      0.52% # Class of executed instruction. (Count)
system.cpu12.exec_context.thread_0.statExecutedInstType::IntAlu      9662401     78.89%     79.40% # Class of executed instruction. (Count)
system.cpu12.exec_context.thread_0.statExecutedInstType::IntMult        29719      0.24%     79.65% # Class of executed instruction. (Count)
system.cpu12.exec_context.thread_0.statExecutedInstType::IntDiv          450      0.00%     79.65% # Class of executed instruction. (Count)
system.cpu12.exec_context.thread_0.statExecutedInstType::FloatAdd            0      0.00%     79.65% # Class of executed instruction. (Count)
system.cpu12.exec_context.thread_0.statExecutedInstType::FloatCmp            0      0.00%     79.65% # Class of executed instruction. (Count)
system.cpu12.exec_context.thread_0.statExecutedInstType::FloatCvt           16      0.00%     79.65% # Class of executed instruction. (Count)
system.cpu12.exec_context.thread_0.statExecutedInstType::FloatMult            0      0.00%     79.65% # Class of executed instruction. (Count)
system.cpu12.exec_context.thread_0.statExecutedInstType::FloatMultAcc            0      0.00%     79.65% # Class of executed instruction. (Count)
system.cpu12.exec_context.thread_0.statExecutedInstType::FloatDiv            0      0.00%     79.65% # Class of executed instruction. (Count)
system.cpu12.exec_context.thread_0.statExecutedInstType::FloatMisc            0      0.00%     79.65% # Class of executed instruction. (Count)
system.cpu12.exec_context.thread_0.statExecutedInstType::FloatSqrt            0      0.00%     79.65% # Class of executed instruction. (Count)
system.cpu12.exec_context.thread_0.statExecutedInstType::SimdAdd            0      0.00%     79.65% # Class of executed instruction. (Count)
system.cpu12.exec_context.thread_0.statExecutedInstType::SimdAddAcc            0      0.00%     79.65% # Class of executed instruction. (Count)
system.cpu12.exec_context.thread_0.statExecutedInstType::SimdAlu            0      0.00%     79.65% # Class of executed instruction. (Count)
system.cpu12.exec_context.thread_0.statExecutedInstType::SimdCmp            0      0.00%     79.65% # Class of executed instruction. (Count)
system.cpu12.exec_context.thread_0.statExecutedInstType::SimdCvt            0      0.00%     79.65% # Class of executed instruction. (Count)
system.cpu12.exec_context.thread_0.statExecutedInstType::SimdMisc            0      0.00%     79.65% # Class of executed instruction. (Count)
system.cpu12.exec_context.thread_0.statExecutedInstType::SimdMult            0      0.00%     79.65% # Class of executed instruction. (Count)
system.cpu12.exec_context.thread_0.statExecutedInstType::SimdMultAcc            0      0.00%     79.65% # Class of executed instruction. (Count)
system.cpu12.exec_context.thread_0.statExecutedInstType::SimdShift            0      0.00%     79.65% # Class of executed instruction. (Count)
system.cpu12.exec_context.thread_0.statExecutedInstType::SimdShiftAcc            0      0.00%     79.65% # Class of executed instruction. (Count)
system.cpu12.exec_context.thread_0.statExecutedInstType::SimdDiv            0      0.00%     79.65% # Class of executed instruction. (Count)
system.cpu12.exec_context.thread_0.statExecutedInstType::SimdSqrt            0      0.00%     79.65% # Class of executed instruction. (Count)
system.cpu12.exec_context.thread_0.statExecutedInstType::SimdFloatAdd            0      0.00%     79.65% # Class of executed instruction. (Count)
system.cpu12.exec_context.thread_0.statExecutedInstType::SimdFloatAlu            0      0.00%     79.65% # Class of executed instruction. (Count)
system.cpu12.exec_context.thread_0.statExecutedInstType::SimdFloatCmp            0      0.00%     79.65% # Class of executed instruction. (Count)
system.cpu12.exec_context.thread_0.statExecutedInstType::SimdFloatCvt            0      0.00%     79.65% # Class of executed instruction. (Count)
system.cpu12.exec_context.thread_0.statExecutedInstType::SimdFloatDiv            0      0.00%     79.65% # Class of executed instruction. (Count)
system.cpu12.exec_context.thread_0.statExecutedInstType::SimdFloatMisc            0      0.00%     79.65% # Class of executed instruction. (Count)
system.cpu12.exec_context.thread_0.statExecutedInstType::SimdFloatMult            0      0.00%     79.65% # Class of executed instruction. (Count)
system.cpu12.exec_context.thread_0.statExecutedInstType::SimdFloatMultAcc            0      0.00%     79.65% # Class of executed instruction. (Count)
system.cpu12.exec_context.thread_0.statExecutedInstType::SimdFloatSqrt            0      0.00%     79.65% # Class of executed instruction. (Count)
system.cpu12.exec_context.thread_0.statExecutedInstType::SimdReduceAdd            0      0.00%     79.65% # Class of executed instruction. (Count)
system.cpu12.exec_context.thread_0.statExecutedInstType::SimdReduceAlu            0      0.00%     79.65% # Class of executed instruction. (Count)
system.cpu12.exec_context.thread_0.statExecutedInstType::SimdReduceCmp            0      0.00%     79.65% # Class of executed instruction. (Count)
system.cpu12.exec_context.thread_0.statExecutedInstType::SimdFloatReduceAdd            0      0.00%     79.65% # Class of executed instruction. (Count)
system.cpu12.exec_context.thread_0.statExecutedInstType::SimdFloatReduceCmp            0      0.00%     79.65% # Class of executed instruction. (Count)
system.cpu12.exec_context.thread_0.statExecutedInstType::SimdAes            0      0.00%     79.65% # Class of executed instruction. (Count)
system.cpu12.exec_context.thread_0.statExecutedInstType::SimdAesMix            0      0.00%     79.65% # Class of executed instruction. (Count)
system.cpu12.exec_context.thread_0.statExecutedInstType::SimdSha1Hash            0      0.00%     79.65% # Class of executed instruction. (Count)
system.cpu12.exec_context.thread_0.statExecutedInstType::SimdSha1Hash2            0      0.00%     79.65% # Class of executed instruction. (Count)
system.cpu12.exec_context.thread_0.statExecutedInstType::SimdSha256Hash            0      0.00%     79.65% # Class of executed instruction. (Count)
system.cpu12.exec_context.thread_0.statExecutedInstType::SimdSha256Hash2            0      0.00%     79.65% # Class of executed instruction. (Count)
system.cpu12.exec_context.thread_0.statExecutedInstType::SimdShaSigma2            0      0.00%     79.65% # Class of executed instruction. (Count)
system.cpu12.exec_context.thread_0.statExecutedInstType::SimdShaSigma3            0      0.00%     79.65% # Class of executed instruction. (Count)
system.cpu12.exec_context.thread_0.statExecutedInstType::SimdPredAlu            0      0.00%     79.65% # Class of executed instruction. (Count)
system.cpu12.exec_context.thread_0.statExecutedInstType::MemRead      1715752     14.01%     93.66% # Class of executed instruction. (Count)
system.cpu12.exec_context.thread_0.statExecutedInstType::MemWrite       776924      6.34%    100.00% # Class of executed instruction. (Count)
system.cpu12.exec_context.thread_0.statExecutedInstType::FloatMemRead            0      0.00%    100.00% # Class of executed instruction. (Count)
system.cpu12.exec_context.thread_0.statExecutedInstType::FloatMemWrite           32      0.00%    100.00% # Class of executed instruction. (Count)
system.cpu12.exec_context.thread_0.statExecutedInstType::IprAccess            0      0.00%    100.00% # Class of executed instruction. (Count)
system.cpu12.exec_context.thread_0.statExecutedInstType::InstPrefetch            0      0.00%    100.00% # Class of executed instruction. (Count)
system.cpu12.exec_context.thread_0.statExecutedInstType::total     12248662                       # Class of executed instruction. (Count)
system.cpu12.interrupts.clk_domain.clock         8000                       # Clock period in ticks (Tick)
system.cpu12.mmu.dtb.rdAccesses               1721832                       # TLB accesses on read requests (Count)
system.cpu12.mmu.dtb.wrAccesses                780547                       # TLB accesses on write requests (Count)
system.cpu12.mmu.dtb.rdMisses                      19                       # TLB misses on read requests (Count)
system.cpu12.mmu.dtb.wrMisses                       3                       # TLB misses on write requests (Count)
system.cpu12.mmu.dtb.walker.power_state.pwrStateResidencyTicks::UNDEFINED 5050607699000                       # Cumulative time (in ticks) in various power states (Tick)
system.cpu12.mmu.itb.rdAccesses                     0                       # TLB accesses on read requests (Count)
system.cpu12.mmu.itb.wrAccesses               8520974                       # TLB accesses on write requests (Count)
system.cpu12.mmu.itb.rdMisses                       0                       # TLB misses on read requests (Count)
system.cpu12.mmu.itb.wrMisses                       8                       # TLB misses on write requests (Count)
system.cpu12.mmu.itb.walker.power_state.pwrStateResidencyTicks::UNDEFINED 5050607699000                       # Cumulative time (in ticks) in various power states (Tick)
system.cpu12.power_state.numTransitions          2488                       # Number of power state transitions (Count)
system.cpu12.power_state.ticksClkGated::samples         1245                       # Distribution of time spent in the clock gated state
system.cpu12.power_state.ticksClkGated::mean 3667274028.112450                       # Distribution of time spent in the clock gated state
system.cpu12.power_state.ticksClkGated::stdev 1070670144.177534                       # Distribution of time spent in the clock gated state
system.cpu12.power_state.ticksClkGated::1000-5e+10         1245    100.00%    100.00% # Distribution of time spent in the clock gated state
system.cpu12.power_state.ticksClkGated::min_value       667000                       # Distribution of time spent in the clock gated state
system.cpu12.power_state.ticksClkGated::max_value  10001274000                       # Distribution of time spent in the clock gated state
system.cpu12.power_state.ticksClkGated::total         1245                       # Distribution of time spent in the clock gated state
system.cpu12.power_state.pwrStateResidencyTicks::ON 484851534000                       # Cumulative time (in ticks) in various power states (Tick)
system.cpu12.power_state.pwrStateResidencyTicks::CLK_GATED 4565756165000                       # Cumulative time (in ticks) in various power states (Tick)
system.cpu12.thread_0.numInsts                      0                       # Number of Instructions committed (Count)
system.cpu12.thread_0.numOps                        0                       # Number of Ops committed (Count)
system.cpu12.thread_0.numMemRefs                    0                       # Number of Memory References (Count)
system.cpu13.numCycles                    10100054614                       # Number of cpu cycles simulated (Cycle)
system.cpu13.numWorkItemsStarted                    0                       # Number of work items this cpu started (Count)
system.cpu13.numWorkItemsCompleted                  0                       # Number of work items this cpu completed (Count)
system.cpu13.exec_context.thread_0.numInsts      6227276                       # Number of instructions committed (Count)
system.cpu13.exec_context.thread_0.numOps     12242184                       # Number of ops (including micro ops) committed (Count)
system.cpu13.exec_context.thread_0.numIntAluAccesses     12058925                       # Number of integer alu accesses (Count)
system.cpu13.exec_context.thread_0.numFpAluAccesses           48                       # Number of float alu accesses (Count)
system.cpu13.exec_context.thread_0.numVecAluAccesses            0                       # Number of vector alu accesses (Count)
system.cpu13.exec_context.thread_0.numCallsReturns       284743                       # Number of times a function call or return occured (Count)
system.cpu13.exec_context.thread_0.numCondCtrlInsts       865560                       # Number of instructions that are conditional controls (Count)
system.cpu13.exec_context.thread_0.numIntInsts     12058925                       # Number of integer instructions (Count)
system.cpu13.exec_context.thread_0.numFpInsts           48                       # Number of float instructions (Count)
system.cpu13.exec_context.thread_0.numVecInsts            0                       # Number of vector instructions (Count)
system.cpu13.exec_context.thread_0.numIntRegReads     23427318                       # Number of times the integer registers were read (Count)
system.cpu13.exec_context.thread_0.numIntRegWrites     10070814                       # Number of times the integer registers were written (Count)
system.cpu13.exec_context.thread_0.numFpRegReads           48                       # Number of times the floating registers were read (Count)
system.cpu13.exec_context.thread_0.numFpRegWrites            0                       # Number of times the floating registers were written (Count)
system.cpu13.exec_context.thread_0.numVecRegReads            0                       # Number of times the vector registers were read (Count)
system.cpu13.exec_context.thread_0.numVecRegWrites            0                       # Number of times the vector registers were written (Count)
system.cpu13.exec_context.thread_0.numVecPredRegReads            0                       # Number of times the predicate registers were read (Count)
system.cpu13.exec_context.thread_0.numVecPredRegWrites            0                       # Number of times the predicate registers were written (Count)
system.cpu13.exec_context.thread_0.numCCRegReads      8052921                       # Number of times the CC registers were read (Count)
system.cpu13.exec_context.thread_0.numCCRegWrites      4330883                       # Number of times the CC registers were written (Count)
system.cpu13.exec_context.thread_0.numMemRefs      2493358                       # Number of memory refs (Count)
system.cpu13.exec_context.thread_0.numLoadInsts      1717126                       # Number of load instructions (Count)
system.cpu13.exec_context.thread_0.numStoreInsts       776232                       # Number of store instructions (Count)
system.cpu13.exec_context.thread_0.numIdleCycles 10074210413.234909                       # Number of idle cycles (Cycle)
[...]
system.ruby.network.routers7.port_buffers4.m_stall_time 11461.905170                       # Average number of cycles messages are stalled in this MB (Unspecified)
system.ruby.network.routers7.port_buffers7.m_buf_msgs     0.000010                       # Average number of messages in buffer (Unspecified)
system.ruby.network.routers7.port_buffers7.m_stall_time  1374.456441                       # Average number of cycles messages are stalled in this MB (Unspecified)
system.ruby.network.routers7.port_buffers9.m_buf_msgs     0.000018                       # Average number of messages in buffer (Unspecified)
system.ruby.network.routers7.port_buffers9.m_stall_time  5038.582866                       # Average number of cycles messages are stalled in this MB (Unspecified)
system.ruby.network.routers7.power_state.pwrStateResidencyTicks::UNDEFINED 5055592637000                       # Cumulative time (in ticks) in various power states (Tick)
system.ruby.network.routers7.throttle00.link_utilization     0.012967                       (Unspecified)
system.ruby.network.routers7.throttle00.msg_count.Request_Control::3        89517                       (Unspecified)
system.ruby.network.routers7.throttle00.msg_bytes.Request_Control::3       716136                       (Unspecified)
system.ruby.network.routers7.throttle00.msg_count.Response_Data::4       104065                       (Unspecified)
system.ruby.network.routers7.throttle00.msg_bytes.Response_Data::4      7492680                       (Unspecified)
system.ruby.network.routers7.throttle00.msg_count.Response_Control::4        79156                       (Unspecified)
system.ruby.network.routers7.throttle00.msg_bytes.Response_Control::4       633248                       (Unspecified)
system.ruby.network.routers7.throttle00.msg_count.Writeback_Control::3           39                       (Unspecified)
system.ruby.network.routers7.throttle00.msg_bytes.Writeback_Control::3          312                       (Unspecified)
system.ruby.network.routers7.throttle00.msg_count.Broadcast_Control::3         1751                       (Unspecified)
system.ruby.network.routers7.throttle00.msg_bytes.Broadcast_Control::3        14008                       (Unspecified)
system.ruby.network.routers7.throttle00.msg_count.Multicast_Control::3        92176                       (Unspecified)
system.ruby.network.routers7.throttle00.msg_bytes.Multicast_Control::3       737408                       (Unspecified)
system.ruby.network.routers7.throttle01.link_utilization     0.009940                       (Unspecified)
system.ruby.network.routers7.throttle01.msg_count.Request_Control::2       104082                       (Unspecified)
system.ruby.network.routers7.throttle01.msg_bytes.Request_Control::2       832656                       (Unspecified)
system.ruby.network.routers7.throttle01.msg_count.Response_Data::4        95451                       (Unspecified)
system.ruby.network.routers7.throttle01.msg_bytes.Response_Data::4      6872472                       (Unspecified)
system.ruby.network.routers7.throttle01.msg_count.Response_Control::4        87993                       (Unspecified)
system.ruby.network.routers7.throttle01.msg_bytes.Response_Control::4       703944                       (Unspecified)
system.ruby.network.routers7.throttle01.msg_count.Writeback_Data::5           22                       (Unspecified)
system.ruby.network.routers7.throttle01.msg_bytes.Writeback_Data::5         1584                       (Unspecified)
system.ruby.network.routers7.throttle01.msg_count.Writeback_Control::2           39                       (Unspecified)
system.ruby.network.routers7.throttle01.msg_count.Writeback_Control::5           17                       (Unspecified)
system.ruby.network.routers7.throttle01.msg_bytes.Writeback_Control::2          312                       (Unspecified)
system.ruby.network.routers7.throttle01.msg_bytes.Writeback_Control::5          136                       (Unspecified)
system.ruby.network.routers7.throttle01.msg_count.Unblock_Control::5       104082                       (Unspecified)
system.ruby.network.routers7.throttle01.msg_bytes.Unblock_Control::5       832656                       (Unspecified)
system.ruby.network.routers8.percent_links_utilized     0.011560                       (Unspecified)
system.ruby.network.routers8.msg_count.Request_Control::2       104038                       (Unspecified)
system.ruby.network.routers8.msg_count.Request_Control::3        88222                       (Unspecified)
system.ruby.network.routers8.msg_bytes.Request_Control::2       832304                       (Unspecified)
system.ruby.network.routers8.msg_bytes.Request_Control::3       705776                       (Unspecified)
system.ruby.network.routers8.msg_count.Response_Data::4       198130                       (Unspecified)
system.ruby.network.routers8.msg_bytes.Response_Data::4     14265360                       (Unspecified)
system.ruby.network.routers8.msg_count.Response_Control::4       167160                       (Unspecified)
system.ruby.network.routers8.msg_bytes.Response_Control::4      1337280                       (Unspecified)
system.ruby.network.routers8.msg_count.Writeback_Data::5           15                       (Unspecified)
system.ruby.network.routers8.msg_bytes.Writeback_Data::5         1080                       (Unspecified)
system.ruby.network.routers8.msg_count.Writeback_Control::2           21                       (Unspecified)
system.ruby.network.routers8.msg_count.Writeback_Control::3           21                       (Unspecified)
system.ruby.network.routers8.msg_count.Writeback_Control::5            6                       (Unspecified)
system.ruby.network.routers8.msg_bytes.Writeback_Control::2          168                       (Unspecified)
system.ruby.network.routers8.msg_bytes.Writeback_Control::3          168                       (Unspecified)
system.ruby.network.routers8.msg_bytes.Writeback_Control::5           48                       (Unspecified)
system.ruby.network.routers8.msg_count.Broadcast_Control::3         1751                       (Unspecified)
system.ruby.network.routers8.msg_bytes.Broadcast_Control::3        14008                       (Unspecified)
system.ruby.network.routers8.msg_count.Multicast_Control::3        92171                       (Unspecified)
system.ruby.network.routers8.msg_bytes.Multicast_Control::3       737368                       (Unspecified)
system.ruby.network.routers8.msg_count.Unblock_Control::5       104038                       (Unspecified)
system.ruby.network.routers8.msg_bytes.Unblock_Control::5       832304                       (Unspecified)
system.ruby.network.routers8.port_buffers10.m_buf_msgs     0.000010                       # Average number of messages in buffer (Unspecified)
system.ruby.network.routers8.port_buffers10.m_stall_time  5026.881689                       # Average number of cycles messages are stalled in this MB (Unspecified)
system.ruby.network.routers8.port_buffers3.m_buf_msgs     0.000018                       # Average number of messages in buffer (Unspecified)
system.ruby.network.routers8.port_buffers3.m_stall_time  3198.231289                       # Average number of cycles messages are stalled in this MB (Unspecified)
system.ruby.network.routers8.port_buffers4.m_buf_msgs     0.000018                       # Average number of messages in buffer (Unspecified)
system.ruby.network.routers8.port_buffers4.m_stall_time 11448.757479                       # Average number of cycles messages are stalled in this MB (Unspecified)
system.ruby.network.routers8.port_buffers7.m_buf_msgs     0.000010                       # Average number of messages in buffer (Unspecified)
system.ruby.network.routers8.port_buffers7.m_stall_time  1370.968022                       # Average number of cycles messages are stalled in this MB (Unspecified)
system.ruby.network.routers8.port_buffers9.m_buf_msgs     0.000018                       # Average number of messages in buffer (Unspecified)
system.ruby.network.routers8.port_buffers9.m_stall_time  5025.791890                       # Average number of cycles messages are stalled in this MB (Unspecified)
system.ruby.network.routers8.power_state.pwrStateResidencyTicks::UNDEFINED 5055592637000                       # Cumulative time (in ticks) in various power states (Tick)
system.ruby.network.routers8.throttle00.link_utilization     0.013023                       (Unspecified)
system.ruby.network.routers8.throttle00.msg_count.Request_Control::3        88222                       (Unspecified)
system.ruby.network.routers8.throttle00.msg_bytes.Request_Control::3       705776                       (Unspecified)
system.ruby.network.routers8.throttle00.msg_count.Response_Data::4       104021                       (Unspecified)
system.ruby.network.routers8.throttle00.msg_bytes.Response_Data::4      7489512                       (Unspecified)
system.ruby.network.routers8.throttle00.msg_count.Response_Control::4        79125                       (Unspecified)
system.ruby.network.routers8.throttle00.msg_bytes.Response_Control::4       633000                       (Unspecified)
system.ruby.network.routers8.throttle00.msg_count.Writeback_Control::3           21                       (Unspecified)
system.ruby.network.routers8.throttle00.msg_bytes.Writeback_Control::3          168                       (Unspecified)
system.ruby.network.routers8.throttle00.msg_count.Broadcast_Control::3         1751                       (Unspecified)
system.ruby.network.routers8.throttle00.msg_bytes.Broadcast_Control::3        14008                       (Unspecified)
system.ruby.network.routers8.throttle00.msg_count.Multicast_Control::3        92171                       (Unspecified)
system.ruby.network.routers8.throttle00.msg_bytes.Multicast_Control::3       737368                       (Unspecified)
system.ruby.network.routers8.throttle01.link_utilization     0.010097                       (Unspecified)
system.ruby.network.routers8.throttle01.msg_count.Request_Control::2       104038                       (Unspecified)
system.ruby.network.routers8.throttle01.msg_bytes.Request_Control::2       832304                       (Unspecified)
system.ruby.network.routers8.throttle01.msg_count.Response_Data::4        94109                       (Unspecified)
system.ruby.network.routers8.throttle01.msg_bytes.Response_Data::4      6775848                       (Unspecified)
system.ruby.network.routers8.throttle01.msg_count.Response_Control::4        88035                       (Unspecified)
system.ruby.network.routers8.throttle01.msg_bytes.Response_Control::4       704280                       (Unspecified)
system.ruby.network.routers8.throttle01.msg_count.Writeback_Data::5           15                       (Unspecified)
system.ruby.network.routers8.throttle01.msg_bytes.Writeback_Data::5         1080                       (Unspecified)
system.ruby.network.routers8.throttle01.msg_count.Writeback_Control::2           21                       (Unspecified)
system.ruby.network.routers8.throttle01.msg_count.Writeback_Control::5            6                       (Unspecified)
system.ruby.network.routers8.throttle01.msg_bytes.Writeback_Control::2          168                       (Unspecified)
system.ruby.network.routers8.throttle01.msg_bytes.Writeback_Control::5           48                       (Unspecified)
system.ruby.network.routers8.throttle01.msg_count.Unblock_Control::5       104038                       (Unspecified)
system.ruby.network.routers8.throttle01.msg_bytes.Unblock_Control::5       832304                       (Unspecified)
system.ruby.network.routers9.percent_links_utilized     0.008174                       (Unspecified)
system.ruby.network.routers9.msg_count.Request_Control::2       103999                       (Unspecified)
system.ruby.network.routers9.msg_count.Request_Control::3        88155                       (Unspecified)
system.ruby.network.routers9.msg_bytes.Request_Control::2       831992                       (Unspecified)
system.ruby.network.routers9.msg_bytes.Request_Control::3       705240                       (Unspecified)
system.ruby.network.routers9.msg_count.Response_Data::4       198030                       (Unspecified)
system.ruby.network.routers9.msg_bytes.Response_Data::4     14258160                       (Unspecified)
system.ruby.network.routers9.msg_count.Response_Control::4       167124                       (Unspecified)
system.ruby.network.routers9.msg_bytes.Response_Control::4      1336992                       (Unspecified)
system.ruby.network.routers9.msg_count.Writeback_Data::5           23                       (Unspecified)
system.ruby.network.routers9.msg_bytes.Writeback_Data::5         1656                       (Unspecified)
system.ruby.network.routers9.msg_count.Writeback_Control::2           31                       (Unspecified)
system.ruby.network.routers9.msg_count.Writeback_Control::3           31                       (Unspecified)
system.ruby.network.routers9.msg_count.Writeback_Control::5            8                       (Unspecified)
system.ruby.network.routers9.msg_bytes.Writeback_Control::2          248                       (Unspecified)
system.ruby.network.routers9.msg_bytes.Writeback_Control::3          248                       (Unspecified)
system.ruby.network.routers9.msg_bytes.Writeback_Control::5           64                       (Unspecified)
system.ruby.network.routers9.msg_count.Broadcast_Control::3         1751                       (Unspecified)
system.ruby.network.routers9.msg_bytes.Broadcast_Control::3        14008                       (Unspecified)
system.ruby.network.routers9.msg_count.Multicast_Control::3        92156                       (Unspecified)
system.ruby.network.routers9.msg_bytes.Multicast_Control::3       737248                       (Unspecified)
system.ruby.network.routers9.msg_count.Unblock_Control::5       103999                       (Unspecified)
system.ruby.network.routers9.msg_bytes.Unblock_Control::5       831992                       (Unspecified)
system.ruby.network.routers9.port_buffers10.m_buf_msgs     0.000010                       # Average number of messages in buffer (Unspecified)
system.ruby.network.routers9.port_buffers10.m_stall_time  5014.093864                       # Average number of cycles messages are stalled in this MB (Unspecified)
system.ruby.network.routers9.port_buffers3.m_buf_msgs     0.000018                       # Average number of messages in buffer (Unspecified)
system.ruby.network.routers9.port_buffers3.m_stall_time  3190.094211                       # Average number of cycles messages are stalled in this MB (Unspecified)
system.ruby.network.routers9.port_buffers4.m_buf_msgs     0.000018                       # Average number of messages in buffer (Unspecified)
system.ruby.network.routers9.port_buffers4.m_stall_time 11436.219428                       # Average number of cycles messages are stalled in this MB (Unspecified)
system.ruby.network.routers9.port_buffers7.m_buf_msgs     0.000010                       # Average number of messages in buffer (Unspecified)
system.ruby.network.routers9.port_buffers7.m_stall_time  1367.480486                       # Average number of cycles messages are stalled in this MB (Unspecified)
system.ruby.network.routers9.port_buffers9.m_buf_msgs     0.000018                       # Average number of messages in buffer (Unspecified)
system.ruby.network.routers9.port_buffers9.m_stall_time  5013.004060                       # Average number of cycles messages are stalled in this MB (Unspecified)
system.ruby.network.routers9.power_state.pwrStateResidencyTicks::UNDEFINED 5055592637000                       # Cumulative time (in ticks) in various power states (Tick)
system.ruby.network.routers9.throttle00.link_utilization     0.008070                       (Unspecified)
system.ruby.network.routers9.throttle00.msg_count.Request_Control::3        88155                       (Unspecified)
system.ruby.network.routers9.throttle00.msg_bytes.Request_Control::3       705240                       (Unspecified)
system.ruby.network.routers9.throttle00.msg_count.Response_Data::4       103982                       (Unspecified)
system.ruby.network.routers9.throttle00.msg_bytes.Response_Data::4      7486704                       (Unspecified)
system.ruby.network.routers9.throttle00.msg_count.Response_Control::4        79110                       (Unspecified)
system.ruby.network.routers9.throttle00.msg_bytes.Response_Control::4       632880                       (Unspecified)
system.ruby.network.routers9.throttle00.msg_count.Writeback_Control::3           31                       (Unspecified)
system.ruby.network.routers9.throttle00.msg_bytes.Writeback_Control::3          248                       (Unspecified)
system.ruby.network.routers9.throttle00.msg_count.Broadcast_Control::3         1751                       (Unspecified)
system.ruby.network.routers9.throttle00.msg_bytes.Broadcast_Control::3        14008                       (Unspecified)
system.ruby.network.routers9.throttle00.msg_count.Multicast_Control::3        92156                       (Unspecified)
system.ruby.network.routers9.throttle00.msg_bytes.Multicast_Control::3       737248                       (Unspecified)
system.ruby.network.routers9.throttle01.link_utilization     0.008278                       (Unspecified)
system.ruby.network.routers9.throttle01.msg_count.Request_Control::2       103999                       (Unspecified)
system.ruby.network.routers9.throttle01.msg_bytes.Request_Control::2       831992                       (Unspecified)
system.ruby.network.routers9.throttle01.msg_count.Response_Data::4        94048                       (Unspecified)
system.ruby.network.routers9.throttle01.msg_bytes.Response_Data::4      6771456                       (Unspecified)
system.ruby.network.routers9.throttle01.msg_count.Response_Control::4        88014                       (Unspecified)
system.ruby.network.routers9.throttle01.msg_bytes.Response_Control::4       704112                       (Unspecified)
system.ruby.network.routers9.throttle01.msg_count.Writeback_Data::5           23                       (Unspecified)
system.ruby.network.routers9.throttle01.msg_bytes.Writeback_Data::5         1656                       (Unspecified)
system.ruby.network.routers9.throttle01.msg_count.Writeback_Control::2           31                       (Unspecified)
system.ruby.network.routers9.throttle01.msg_count.Writeback_Control::5            8                       (Unspecified)
system.ruby.network.routers9.throttle01.msg_bytes.Writeback_Control::2          248                       (Unspecified)
system.ruby.network.routers9.throttle01.msg_bytes.Writeback_Control::5           64                       (Unspecified)
system.ruby.network.routers9.throttle01.msg_count.Unblock_Control::5       103999                       (Unspecified)
system.ruby.network.routers9.throttle01.msg_bytes.Unblock_Control::5       831992                       (Unspecified)
system.ruby.power_state.pwrStateResidencyTicks::UNDEFINED 5055592637000                       # Cumulative time (in ticks) in various power states (Tick)
system.sys_port_proxy.power_state.pwrStateResidencyTicks::UNDEFINED   4984938000                       # Cumulative time (in ticks) in various power states (Tick)
system.voltage_domain.voltage                       1                       # Voltage in Volts (Volt)
system.workload.inst.arm                            0                       # number of arm instructions executed (Count)
system.workload.inst.quiesce                      120                       # number of quiesce instructions executed (Count)

---------- End Simulation Statistics   ----------
