
---------- Begin Simulation Statistics ----------
simSeconds                                   0.026746                       # Number of seconds simulated (Second)
simTicks                                  26746099500                       # Number of ticks simulated (Tick)
finalTick                                 26746099500                       # Number of ticks from beginning of simulation (restored from checkpoints and never reset) (Tick)
simFreq                                  1000000000000                       # The number of ticks per simulated second ((Tick/Second))
hostSeconds                                     51.23                       # Real time elapsed on the host (Second)
hostTickRate                                522044035                       # The number of ticks simulated per host second (ticks/s) ((Tick/Second))
hostMemory                                     846932                       # Number of bytes of host memory used (Byte)
simInsts                                     49945400                       # Number of instructions simulated (Count)
simOps                                       91113306                       # Number of ops (including micro ops) simulated (Count)
hostInstRate                                   974856                       # Simulator instruction rate (inst/s) ((Count/Second))
hostOpRate                                    1778389                       # Simulator op (including micro ops) rate (op/s) ((Count/Second))
system.clk_domain.clock                          1000                       # Clock period in ticks (Tick)
system.cpu0.numCycles                        53574503                       # Number of cpu cycles simulated (Cycle)
system.cpu0.numWorkItemsStarted                     0                       # Number of work items this cpu started (Count)
system.cpu0.numWorkItemsCompleted                   0                       # Number of work items this cpu completed (Count)
system.cpu0.exec_context.thread_0.numInsts     21489286                       # Number of instructions committed (Count)
system.cpu0.exec_context.thread_0.numOps     41641137                       # Number of ops (including micro ops) committed (Count)
system.cpu0.exec_context.thread_0.numIntAluAccesses     28969445                       # Number of integer alu accesses (Count)
system.cpu0.exec_context.thread_0.numFpAluAccesses     14223607                       # Number of float alu accesses (Count)
system.cpu0.exec_context.thread_0.numVecAluAccesses            0                       # Number of vector alu accesses (Count)
system.cpu0.exec_context.thread_0.numCallsReturns       106906                       # Number of times a function call or return occured (Count)
system.cpu0.exec_context.thread_0.numCondCtrlInsts      1991042                       # Number of instructions that are conditional controls (Count)
system.cpu0.exec_context.thread_0.numIntInsts     28969445                       # Number of integer instructions (Count)
system.cpu0.exec_context.thread_0.numFpInsts     14223607                       # Number of float instructions (Count)
system.cpu0.exec_context.thread_0.numVecInsts            0                       # Number of vector instructions (Count)
system.cpu0.exec_context.thread_0.numIntRegReads     55531163                       # Number of times the integer registers were read (Count)
system.cpu0.exec_context.thread_0.numIntRegWrites     25700115                       # Number of times the integer registers were written (Count)
system.cpu0.exec_context.thread_0.numFpRegReads     30468383                       # Number of times the floating registers were read (Count)
system.cpu0.exec_context.thread_0.numFpRegWrites     14165021                       # Number of times the floating registers were written (Count)
system.cpu0.exec_context.thread_0.numVecRegReads            0                       # Number of times the vector registers were read (Count)
system.cpu0.exec_context.thread_0.numVecRegWrites            0                       # Number of times the vector registers were written (Count)
system.cpu0.exec_context.thread_0.numVecPredRegReads            0                       # Number of times the predicate registers were read (Count)
system.cpu0.exec_context.thread_0.numVecPredRegWrites            0                       # Number of times the predicate registers were written (Count)
system.cpu0.exec_context.thread_0.numCCRegReads     10559620                       # Number of times the CC registers were read (Count)
system.cpu0.exec_context.thread_0.numCCRegWrites     13612341                       # Number of times the CC registers were written (Count)
system.cpu0.exec_context.thread_0.numMemRefs      5978674                       # Number of memory refs (Count)
system.cpu0.exec_context.thread_0.numLoadInsts      4857033                       # Number of load instructions (Count)
system.cpu0.exec_context.thread_0.numStoreInsts      1121641                       # Number of store instructions (Count)
system.cpu0.exec_context.thread_0.numIdleCycles 5939547.650678                       # Number of idle cycles (Cycle)
system.cpu0.exec_context.thread_0.numBusyCycles 47634955.349322                       # Number of busy cycles (Cycle)
system.cpu0.exec_context.thread_0.notIdleFraction     0.889135                       # Percentage of non-idle cycles (Ratio)
system.cpu0.exec_context.thread_0.idleFraction     0.110865                       # Percentage of idle cycles (Ratio)
system.cpu0.exec_context.thread_0.numBranches      2157514                       # Number of branches fetched (Count)
system.cpu0.exec_context.thread_0.statExecutedInstType::No_OpClass        21069      0.05%      0.05% # Class of executed instruction. (Count)
system.cpu0.exec_context.thread_0.statExecutedInstType::IntAlu     24101008     57.88%     57.93% # Class of executed instruction. (Count)
system.cpu0.exec_context.thread_0.statExecutedInstType::IntMult      1572918      3.78%     61.71% # Class of executed instruction. (Count)
system.cpu0.exec_context.thread_0.statExecutedInstType::IntDiv         5407      0.01%     61.72% # Class of executed instruction. (Count)
system.cpu0.exec_context.thread_0.statExecutedInstType::FloatAdd       524417      1.26%     62.98% # Class of executed instruction. (Count)
system.cpu0.exec_context.thread_0.statExecutedInstType::FloatCmp            0      0.00%     62.98% # Class of executed instruction. (Count)
system.cpu0.exec_context.thread_0.statExecutedInstType::FloatCvt          176      0.00%     62.98% # Class of executed instruction. (Count)
system.cpu0.exec_context.thread_0.statExecutedInstType::FloatMult            0      0.00%     62.98% # Class of executed instruction. (Count)
system.cpu0.exec_context.thread_0.statExecutedInstType::FloatMultAcc            0      0.00%     62.98% # Class of executed instruction. (Count)
system.cpu0.exec_context.thread_0.statExecutedInstType::FloatDiv            0      0.00%     62.98% # Class of executed instruction. (Count)
system.cpu0.exec_context.thread_0.statExecutedInstType::FloatMisc            0      0.00%     62.98% # Class of executed instruction. (Count)
system.cpu0.exec_context.thread_0.statExecutedInstType::FloatSqrt            0      0.00%     62.98% # Class of executed instruction. (Count)
system.cpu0.exec_context.thread_0.statExecutedInstType::SimdAdd      1048576      2.52%     65.50% # Class of executed instruction. (Count)
system.cpu0.exec_context.thread_0.statExecutedInstType::SimdAddAcc            0      0.00%     65.50% # Class of executed instruction. (Count)
system.cpu0.exec_context.thread_0.statExecutedInstType::SimdAlu           84      0.00%     65.50% # Class of executed instruction. (Count)
system.cpu0.exec_context.thread_0.statExecutedInstType::SimdCmp            0      0.00%     65.50% # Class of executed instruction. (Count)
system.cpu0.exec_context.thread_0.statExecutedInstType::SimdCvt          132      0.00%     65.50% # Class of executed instruction. (Count)
system.cpu0.exec_context.thread_0.statExecutedInstType::SimdMisc      4194585     10.07%     75.57% # Class of executed instruction. (Count)
system.cpu0.exec_context.thread_0.statExecutedInstType::SimdMult      2097152      5.04%     80.61% # Class of executed instruction. (Count)
system.cpu0.exec_context.thread_0.statExecutedInstType::SimdMultAcc            0      0.00%     80.61% # Class of executed instruction. (Count)
system.cpu0.exec_context.thread_0.statExecutedInstType::SimdShift      2097152      5.04%     85.64% # Class of executed instruction. (Count)
system.cpu0.exec_context.thread_0.statExecutedInstType::SimdShiftAcc            0      0.00%     85.64% # Class of executed instruction. (Count)
system.cpu0.exec_context.thread_0.statExecutedInstType::SimdDiv            0      0.00%     85.64% # Class of executed instruction. (Count)
system.cpu0.exec_context.thread_0.statExecutedInstType::SimdSqrt            0      0.00%     85.64% # Class of executed instruction. (Count)
system.cpu0.exec_context.thread_0.statExecutedInstType::SimdFloatAdd            4      0.00%     85.64% # Class of executed instruction. (Count)
system.cpu0.exec_context.thread_0.statExecutedInstType::SimdFloatAlu            0      0.00%     85.64% # Class of executed instruction. (Count)
system.cpu0.exec_context.thread_0.statExecutedInstType::SimdFloatCmp            0      0.00%     85.64% # Class of executed instruction. (Count)
system.cpu0.exec_context.thread_0.statExecutedInstType::SimdFloatCvt            8      0.00%     85.64% # Class of executed instruction. (Count)
system.cpu0.exec_context.thread_0.statExecutedInstType::SimdFloatDiv            4      0.00%     85.64% # Class of executed instruction. (Count)
system.cpu0.exec_context.thread_0.statExecutedInstType::SimdFloatMisc            0      0.00%     85.64% # Class of executed instruction. (Count)
system.cpu0.exec_context.thread_0.statExecutedInstType::SimdFloatMult            4      0.00%     85.64% # Class of executed instruction. (Count)
system.cpu0.exec_context.thread_0.statExecutedInstType::SimdFloatMultAcc            0      0.00%     85.64% # Class of executed instruction. (Count)
system.cpu0.exec_context.thread_0.statExecutedInstType::SimdFloatSqrt            0      0.00%     85.64% # Class of executed instruction. (Count)
system.cpu0.exec_context.thread_0.statExecutedInstType::SimdReduceAdd            0      0.00%     85.64% # Class of executed instruction. (Count)
system.cpu0.exec_context.thread_0.statExecutedInstType::SimdReduceAlu            0      0.00%     85.64% # Class of executed instruction. (Count)
system.cpu0.exec_context.thread_0.statExecutedInstType::SimdReduceCmp            0      0.00%     85.64% # Class of executed instruction. (Count)
system.cpu0.exec_context.thread_0.statExecutedInstType::SimdFloatReduceAdd            0      0.00%     85.64% # Class of executed instruction. (Count)
system.cpu0.exec_context.thread_0.statExecutedInstType::SimdFloatReduceCmp            0      0.00%     85.64% # Class of executed instruction. (Count)
system.cpu0.exec_context.thread_0.statExecutedInstType::SimdAes            0      0.00%     85.64% # Class of executed instruction. (Count)
system.cpu0.exec_context.thread_0.statExecutedInstType::SimdAesMix            0      0.00%     85.64% # Class of executed instruction. (Count)
system.cpu0.exec_context.thread_0.statExecutedInstType::SimdSha1Hash            0      0.00%     85.64% # Class of executed instruction. (Count)
system.cpu0.exec_context.thread_0.statExecutedInstType::SimdSha1Hash2            0      0.00%     85.64% # Class of executed instruction. (Count)
system.cpu0.exec_context.thread_0.statExecutedInstType::SimdSha256Hash            0      0.00%     85.64% # Class of executed instruction. (Count)
system.cpu0.exec_context.thread_0.statExecutedInstType::SimdSha256Hash2            0      0.00%     85.64% # Class of executed instruction. (Count)
system.cpu0.exec_context.thread_0.statExecutedInstType::SimdShaSigma2            0      0.00%     85.64% # Class of executed instruction. (Count)
system.cpu0.exec_context.thread_0.statExecutedInstType::SimdShaSigma3            0      0.00%     85.64% # Class of executed instruction. (Count)
system.cpu0.exec_context.thread_0.statExecutedInstType::SimdPredAlu            0      0.00%     85.64% # Class of executed instruction. (Count)
system.cpu0.exec_context.thread_0.statExecutedInstType::MemRead      3275521      7.87%     93.51% # Class of executed instruction. (Count)
system.cpu0.exec_context.thread_0.statExecutedInstType::MemWrite      1063373      2.55%     96.06% # Class of executed instruction. (Count)
system.cpu0.exec_context.thread_0.statExecutedInstType::FloatMemRead      1581512      3.80%     99.86% # Class of executed instruction. (Count)
system.cpu0.exec_context.thread_0.statExecutedInstType::FloatMemWrite        58268      0.14%    100.00% # Class of executed instruction. (Count)
system.cpu0.exec_context.thread_0.statExecutedInstType::IprAccess            0      0.00%    100.00% # Class of executed instruction. (Count)
system.cpu0.exec_context.thread_0.statExecutedInstType::InstPrefetch            0      0.00%    100.00% # Class of executed instruction. (Count)
system.cpu0.exec_context.thread_0.statExecutedInstType::total     41641370                       # Class of executed instruction. (Count)
system.cpu0.interrupts.clk_domain.clock          8000                       # Clock period in ticks (Tick)
system.cpu0.mmu.dtb.rdAccesses                4857036                       # TLB accesses on read requests (Count)
system.cpu0.mmu.dtb.wrAccesses                1121643                       # TLB accesses on write requests (Count)
system.cpu0.mmu.dtb.rdMisses                      361                       # TLB misses on read requests (Count)
system.cpu0.mmu.dtb.wrMisses                      218                       # TLB misses on write requests (Count)
system.cpu0.mmu.dtb.walker.power_state.pwrStateResidencyTicks::UNDEFINED  26746099500                       # Cumulative time (in ticks) in various power states (Tick)
system.cpu0.mmu.itb.rdAccesses                      0                       # TLB accesses on read requests (Count)
system.cpu0.mmu.itb.wrAccesses               27492229                       # TLB accesses on write requests (Count)
system.cpu0.mmu.itb.rdMisses                        0                       # TLB misses on read requests (Count)
system.cpu0.mmu.itb.wrMisses                      210                       # TLB misses on write requests (Count)
system.cpu0.mmu.itb.walker.power_state.pwrStateResidencyTicks::UNDEFINED  26746099500                       # Cumulative time (in ticks) in various power states (Tick)
system.cpu0.power_state.numTransitions              8                       # Number of power state transitions (Count)
system.cpu0.power_state.ticksClkGated::samples            4                       # Distribution of time spent in the clock gated state (Tick)
system.cpu0.power_state.ticksClkGated::mean    741302875                       # Distribution of time spent in the clock gated state (Tick)
system.cpu0.power_state.ticksClkGated::stdev 1026726963.286035                       # Distribution of time spent in the clock gated state (Tick)
system.cpu0.power_state.ticksClkGated::1000-5e+10            4    100.00%    100.00% # Distribution of time spent in the clock gated state (Tick)
system.cpu0.power_state.ticksClkGated::min_value       914500                       # Distribution of time spent in the clock gated state (Tick)
system.cpu0.power_state.ticksClkGated::max_value   2178041500                       # Distribution of time spent in the clock gated state (Tick)
system.cpu0.power_state.ticksClkGated::total            4                       # Distribution of time spent in the clock gated state (Tick)
system.cpu0.power_state.pwrStateResidencyTicks::ON  23780888000                       # Cumulative time (in ticks) in various power states (Tick)
system.cpu0.power_state.pwrStateResidencyTicks::CLK_GATED   2965211500                       # Cumulative time (in ticks) in various power states (Tick)
system.cpu0.thread_0.numInsts                       0                       # Number of Instructions committed (Count)
system.cpu0.thread_0.numOps                         0                       # Number of Ops committed (Count)
system.cpu0.thread_0.numMemRefs                     0                       # Number of Memory References (Count)
system.cpu0.workload.numSyscalls                   81                       # Number of system calls (Count)
system.cpu1.numCycles                        65861989                       # Number of cpu cycles simulated (Cycle)
system.cpu1.numWorkItemsStarted                     0                       # Number of work items this cpu started (Count)
system.cpu1.numWorkItemsCompleted                   0                       # Number of work items this cpu completed (Count)
system.cpu1.exec_context.thread_0.numInsts      9313912                       # Number of instructions committed (Count)
system.cpu1.exec_context.thread_0.numOps     16199324                       # Number of ops (including micro ops) committed (Count)
system.cpu1.exec_context.thread_0.numIntAluAccesses     16190317                       # Number of integer alu accesses (Count)
system.cpu1.exec_context.thread_0.numFpAluAccesses           81                       # Number of float alu accesses (Count)
system.cpu1.exec_context.thread_0.numVecAluAccesses            0                       # Number of vector alu accesses (Count)
system.cpu1.exec_context.thread_0.numCallsReturns          810                       # Number of times a function call or return occured (Count)
system.cpu1.exec_context.thread_0.numCondCtrlInsts       701030                       # Number of instructions that are conditional controls (Count)
system.cpu1.exec_context.thread_0.numIntInsts     16190317                       # Number of integer instructions (Count)
system.cpu1.exec_context.thread_0.numFpInsts           81                       # Number of float instructions (Count)
system.cpu1.exec_context.thread_0.numVecInsts            0                       # Number of vector instructions (Count)
system.cpu1.exec_context.thread_0.numIntRegReads     32559011                       # Number of times the integer registers were read (Count)
system.cpu1.exec_context.thread_0.numIntRegWrites     16489973                       # Number of times the integer registers were written (Count)
system.cpu1.exec_context.thread_0.numFpRegReads           89                       # Number of times the floating registers were read (Count)
system.cpu1.exec_context.thread_0.numFpRegWrites            9                       # Number of times the floating registers were written (Count)
system.cpu1.exec_context.thread_0.numVecRegReads            0                       # Number of times the vector registers were read (Count)
system.cpu1.exec_context.thread_0.numVecRegWrites            0                       # Number of times the vector registers were written (Count)
system.cpu1.exec_context.thread_0.numVecPredRegReads            0                       # Number of times the predicate registers were read (Count)
system.cpu1.exec_context.thread_0.numVecPredRegWrites            0                       # Number of times the predicate registers were written (Count)
system.cpu1.exec_context.thread_0.numCCRegReads      3697632                       # Number of times the CC registers were read (Count)
system.cpu1.exec_context.thread_0.numCCRegWrites      7580016                       # Number of times the CC registers were written (Count)
system.cpu1.exec_context.thread_0.numMemRefs      2812907                       # Number of memory refs (Count)
system.cpu1.exec_context.thread_0.numLoadInsts      2253920                       # Number of load instructions (Count)
system.cpu1.exec_context.thread_0.numStoreInsts       558987                       # Number of store instructions (Count)
system.cpu1.exec_context.thread_0.numIdleCycles 42390127.687693                       # Number of idle cycles (Cycle)
system.cpu1.exec_context.thread_0.numBusyCycles 23471861.312307                       # Number of busy cycles (Cycle)
system.cpu1.exec_context.thread_0.notIdleFraction     0.356379                       # Percentage of non-idle cycles (Ratio)
system.cpu1.exec_context.thread_0.idleFraction     0.643621                       # Percentage of idle cycles (Ratio)
system.cpu1.exec_context.thread_0.numBranches       714381                       # Number of branches fetched (Count)
system.cpu1.exec_context.thread_0.statExecutedInstType::No_OpClass         8948      0.06%      0.06% # Class of executed instruction. (Count)
system.cpu1.exec_context.thread_0.statExecutedInstType::IntAlu     11804597     72.87%     72.93% # Class of executed instruction. (Count)
system.cpu1.exec_context.thread_0.statExecutedInstType::IntMult      1572865      9.71%     82.64% # Class of executed instruction. (Count)
system.cpu1.exec_context.thread_0.statExecutedInstType::IntDiv            7      0.00%     82.64% # Class of executed instruction. (Count)
system.cpu1.exec_context.thread_0.statExecutedInstType::FloatAdd            1      0.00%     82.64% # Class of executed instruction. (Count)
system.cpu1.exec_context.thread_0.statExecutedInstType::FloatCmp            0      0.00%     82.64% # Class of executed instruction. (Count)
system.cpu1.exec_context.thread_0.statExecutedInstType::FloatCvt            0      0.00%     82.64% # Class of executed instruction. (Count)
system.cpu1.exec_context.thread_0.statExecutedInstType::FloatMult            0      0.00%     82.64% # Class of executed instruction. (Count)
system.cpu1.exec_context.thread_0.statExecutedInstType::FloatMultAcc            0      0.00%     82.64% # Class of executed instruction. (Count)
system.cpu1.exec_context.thread_0.statExecutedInstType::FloatDiv            0      0.00%     82.64% # Class of executed instruction. (Count)
system.cpu1.exec_context.thread_0.statExecutedInstType::FloatMisc            0      0.00%     82.64% # Class of executed instruction. (Count)
system.cpu1.exec_context.thread_0.statExecutedInstType::FloatSqrt            0      0.00%     82.64% # Class of executed instruction. (Count)
system.cpu1.exec_context.thread_0.statExecutedInstType::SimdAdd            0      0.00%     82.64% # Class of executed instruction. (Count)
system.cpu1.exec_context.thread_0.statExecutedInstType::SimdAddAcc            0      0.00%     82.64% # Class of executed instruction. (Count)
system.cpu1.exec_context.thread_0.statExecutedInstType::SimdAlu            0      0.00%     82.64% # Class of executed instruction. (Count)
system.cpu1.exec_context.thread_0.statExecutedInstType::SimdCmp            0      0.00%     82.64% # Class of executed instruction. (Count)
system.cpu1.exec_context.thread_0.statExecutedInstType::SimdCvt            0      0.00%     82.64% # Class of executed instruction. (Count)
system.cpu1.exec_context.thread_0.statExecutedInstType::SimdMisc            7      0.00%     82.64% # Class of executed instruction. (Count)
system.cpu1.exec_context.thread_0.statExecutedInstType::SimdMult            0      0.00%     82.64% # Class of executed instruction. (Count)
system.cpu1.exec_context.thread_0.statExecutedInstType::SimdMultAcc            0      0.00%     82.64% # Class of executed instruction. (Count)
system.cpu1.exec_context.thread_0.statExecutedInstType::SimdShift            0      0.00%     82.64% # Class of executed instruction. (Count)
system.cpu1.exec_context.thread_0.statExecutedInstType::SimdShiftAcc            0      0.00%     82.64% # Class of executed instruction. (Count)
system.cpu1.exec_context.thread_0.statExecutedInstType::SimdDiv            0      0.00%     82.64% # Class of executed instruction. (Count)
system.cpu1.exec_context.thread_0.statExecutedInstType::SimdSqrt            0      0.00%     82.64% # Class of executed instruction. (Count)
system.cpu1.exec_context.thread_0.statExecutedInstType::SimdFloatAdd            0      0.00%     82.64% # Class of executed instruction. (Count)
system.cpu1.exec_context.thread_0.statExecutedInstType::SimdFloatAlu            0      0.00%     82.64% # Class of executed instruction. (Count)
system.cpu1.exec_context.thread_0.statExecutedInstType::SimdFloatCmp            0      0.00%     82.64% # Class of executed instruction. (Count)
system.cpu1.exec_context.thread_0.statExecutedInstType::SimdFloatCvt            0      0.00%     82.64% # Class of executed instruction. (Count)
system.cpu1.exec_context.thread_0.statExecutedInstType::SimdFloatDiv            0      0.00%     82.64% # Class of executed instruction. (Count)
system.cpu1.exec_context.thread_0.statExecutedInstType::SimdFloatMisc            0      0.00%     82.64% # Class of executed instruction. (Count)
system.cpu1.exec_context.thread_0.statExecutedInstType::SimdFloatMult            0      0.00%     82.64% # Class of executed instruction. (Count)
system.cpu1.exec_context.thread_0.statExecutedInstType::SimdFloatMultAcc            0      0.00%     82.64% # Class of executed instruction. (Count)
system.cpu1.exec_context.thread_0.statExecutedInstType::SimdFloatSqrt            0      0.00%     82.64% # Class of executed instruction. (Count)
system.cpu1.exec_context.thread_0.statExecutedInstType::SimdReduceAdd            0      0.00%     82.64% # Class of executed instruction. (Count)
system.cpu1.exec_context.thread_0.statExecutedInstType::SimdReduceAlu            0      0.00%     82.64% # Class of executed instruction. (Count)
system.cpu1.exec_context.thread_0.statExecutedInstType::SimdReduceCmp            0      0.00%     82.64% # Class of executed instruction. (Count)
system.cpu1.exec_context.thread_0.statExecutedInstType::SimdFloatReduceAdd            0      0.00%     82.64% # Class of executed instruction. (Count)
system.cpu1.exec_context.thread_0.statExecutedInstType::SimdFloatReduceCmp            0      0.00%     82.64% # Class of executed instruction. (Count)
system.cpu1.exec_context.thread_0.statExecutedInstType::SimdAes            0      0.00%     82.64% # Class of executed instruction. (Count)
system.cpu1.exec_context.thread_0.statExecutedInstType::SimdAesMix            0      0.00%     82.64% # Class of executed instruction. (Count)
system.cpu1.exec_context.thread_0.statExecutedInstType::SimdSha1Hash            0      0.00%     82.64% # Class of executed instruction. (Count)
system.cpu1.exec_context.thread_0.statExecutedInstType::SimdSha1Hash2            0      0.00%     82.64% # Class of executed instruction. (Count)
system.cpu1.exec_context.thread_0.statExecutedInstType::SimdSha256Hash            0      0.00%     82.64% # Class of executed instruction. (Count)
system.cpu1.exec_context.thread_0.statExecutedInstType::SimdSha256Hash2            0      0.00%     82.64% # Class of executed instruction. (Count)
system.cpu1.exec_context.thread_0.statExecutedInstType::SimdShaSigma2            0      0.00%     82.64% # Class of executed instruction. (Count)
system.cpu1.exec_context.thread_0.statExecutedInstType::SimdShaSigma3            0      0.00%     82.64% # Class of executed instruction. (Count)
system.cpu1.exec_context.thread_0.statExecutedInstType::SimdPredAlu            0      0.00%     82.64% # Class of executed instruction. (Count)
system.cpu1.exec_context.thread_0.statExecutedInstType::MemRead      2253920     13.91%     96.55% # Class of executed instruction. (Count)
system.cpu1.exec_context.thread_0.statExecutedInstType::MemWrite       558915      3.45%    100.00% # Class of executed instruction. (Count)
system.cpu1.exec_context.thread_0.statExecutedInstType::FloatMemRead            0      0.00%    100.00% # Class of executed instruction. (Count)
system.cpu1.exec_context.thread_0.statExecutedInstType::FloatMemWrite           72      0.00%    100.00% # Class of executed instruction. (Count)
system.cpu1.exec_context.thread_0.statExecutedInstType::IprAccess            0      0.00%    100.00% # Class of executed instruction. (Count)
system.cpu1.exec_context.thread_0.statExecutedInstType::InstPrefetch            0      0.00%    100.00% # Class of executed instruction. (Count)
system.cpu1.exec_context.thread_0.statExecutedInstType::total     16199332                       # Class of executed instruction. (Count)
system.cpu1.interrupts.clk_domain.clock          8000                       # Clock period in ticks (Tick)
system.cpu1.mmu.dtb.rdAccesses                2253920                       # TLB accesses on read requests (Count)
system.cpu1.mmu.dtb.wrAccesses                 558987                       # TLB accesses on write requests (Count)
system.cpu1.mmu.dtb.rdMisses                       73                       # TLB misses on read requests (Count)
system.cpu1.mmu.dtb.wrMisses                        5                       # TLB misses on write requests (Count)
system.cpu1.mmu.dtb.walker.power_state.pwrStateResidencyTicks::UNDEFINED  26746099500                       # Cumulative time (in ticks) in various power states (Tick)
system.cpu1.mmu.itb.rdAccesses                      0                       # TLB accesses on read requests (Count)
system.cpu1.mmu.itb.wrAccesses               12178157                       # TLB accesses on write requests (Count)
system.cpu1.mmu.itb.rdMisses                        0                       # TLB misses on read requests (Count)
system.cpu1.mmu.itb.wrMisses                       37                       # TLB misses on write requests (Count)
system.cpu1.mmu.itb.walker.power_state.pwrStateResidencyTicks::UNDEFINED  26746099500                       # Cumulative time (in ticks) in various power states (Tick)
system.cpu1.power_state.numTransitions              2                       # Number of power state transitions (Count)
system.cpu1.power_state.ticksClkGated::samples            1                       # Distribution of time spent in the clock gated state (Tick)
system.cpu1.power_state.ticksClkGated::mean   1470482000                       # Distribution of time spent in the clock gated state (Tick)
system.cpu1.power_state.ticksClkGated::1000-5e+10            1    100.00%    100.00% # Distribution of time spent in the clock gated state (Tick)
system.cpu1.power_state.ticksClkGated::min_value   1470482000                       # Distribution of time spent in the clock gated state (Tick)
system.cpu1.power_state.ticksClkGated::max_value   1470482000                       # Distribution of time spent in the clock gated state (Tick)
system.cpu1.power_state.ticksClkGated::total            1                       # Distribution of time spent in the clock gated state (Tick)
system.cpu1.power_state.pwrStateResidencyTicks::ON  25275617500                       # Cumulative time (in ticks) in various power states (Tick)
system.cpu1.power_state.pwrStateResidencyTicks::CLK_GATED   1470482000                       # Cumulative time (in ticks) in various power states (Tick)
system.cpu1.thread_0.numInsts                       0                       # Number of Instructions committed (Count)
system.cpu1.thread_0.numOps                         0                       # Number of Ops committed (Count)
system.cpu1.thread_0.numMemRefs                     0                       # Number of Memory References (Count)
system.cpu2.numCycles                       109092893                       # Number of cpu cycles simulated (Cycle)
system.cpu2.numWorkItemsStarted                     0                       # Number of work items this cpu started (Count)
system.cpu2.numWorkItemsCompleted                   0                       # Number of work items this cpu completed (Count)
system.cpu2.exec_context.thread_0.numInsts     10688000                       # Number of instructions committed (Count)
system.cpu2.exec_context.thread_0.numOps     18482774                       # Number of ops (including micro ops) committed (Count)
system.cpu2.exec_context.thread_0.numIntAluAccesses     18472351                       # Number of integer alu accesses (Count)
system.cpu2.exec_context.thread_0.numFpAluAccesses            0                       # Number of float alu accesses (Count)
system.cpu2.exec_context.thread_0.numVecAluAccesses            0                       # Number of vector alu accesses (Count)
system.cpu2.exec_context.thread_0.numCallsReturns         1889                       # Number of times a function call or return occured (Count)
system.cpu2.exec_context.thread_0.numCondCtrlInsts       967771                       # Number of instructions that are conditional controls (Count)
system.cpu2.exec_context.thread_0.numIntInsts     18472351                       # Number of integer instructions (Count)
system.cpu2.exec_context.thread_0.numFpInsts            0                       # Number of float instructions (Count)
system.cpu2.exec_context.thread_0.numVecInsts            0                       # Number of vector instructions (Count)
system.cpu2.exec_context.thread_0.numIntRegReads     36642711                       # Number of times the integer registers were read (Count)
system.cpu2.exec_context.thread_0.numIntRegWrites     18432209                       # Number of times the integer registers were written (Count)
system.cpu2.exec_context.thread_0.numFpRegReads            0                       # Number of times the floating registers were read (Count)
system.cpu2.exec_context.thread_0.numFpRegWrites            0                       # Number of times the floating registers were written (Count)
system.cpu2.exec_context.thread_0.numVecRegReads            0                       # Number of times the vector registers were read (Count)
system.cpu2.exec_context.thread_0.numVecRegWrites            0                       # Number of times the vector registers were written (Count)
system.cpu2.exec_context.thread_0.numVecPredRegReads            0                       # Number of times the predicate registers were read (Count)
system.cpu2.exec_context.thread_0.numVecPredRegWrites            0                       # Number of times the predicate registers were written (Count)
system.cpu2.exec_context.thread_0.numCCRegReads      5308710                       # Number of times the CC registers were read (Count)
system.cpu2.exec_context.thread_0.numCCRegWrites      8706182                       # Number of times the CC registers were written (Count)
system.cpu2.exec_context.thread_0.numMemRefs      3124752                       # Number of memory refs (Count)
system.cpu2.exec_context.thread_0.numLoadInsts      2512234                       # Number of load instructions (Count)
system.cpu2.exec_context.thread_0.numStoreInsts       612518                       # Number of store instructions (Count)
system.cpu2.exec_context.thread_0.numIdleCycles 64782307.299248                       # Number of idle cycles (Cycle)
system.cpu2.exec_context.thread_0.numBusyCycles 44310585.700752                       # Number of busy cycles (Cycle)
system.cpu2.exec_context.thread_0.notIdleFraction     0.406173                       # Percentage of non-idle cycles (Ratio)
system.cpu2.exec_context.thread_0.idleFraction     0.593827                       # Percentage of idle cycles (Ratio)
system.cpu2.exec_context.thread_0.numBranches      1000504                       # Number of branches fetched (Count)
system.cpu2.exec_context.thread_0.statExecutedInstType::No_OpClass        10385      0.06%      0.06% # Class of executed instruction. (Count)
system.cpu2.exec_context.thread_0.statExecutedInstType::IntAlu     13774774     74.53%     74.58% # Class of executed instruction. (Count)
system.cpu2.exec_context.thread_0.statExecutedInstType::IntMult      1572865      8.51%     83.09% # Class of executed instruction. (Count)
system.cpu2.exec_context.thread_0.statExecutedInstType::IntDiv            7      0.00%     83.09% # Class of executed instruction. (Count)
system.cpu2.exec_context.thread_0.statExecutedInstType::FloatAdd            0      0.00%     83.09% # Class of executed instruction. (Count)
system.cpu2.exec_context.thread_0.statExecutedInstType::FloatCmp            0      0.00%     83.09% # Class of executed instruction. (Count)
system.cpu2.exec_context.thread_0.statExecutedInstType::FloatCvt            0      0.00%     83.09% # Class of executed instruction. (Count)
system.cpu2.exec_context.thread_0.statExecutedInstType::FloatMult            0      0.00%     83.09% # Class of executed instruction. (Count)
system.cpu2.exec_context.thread_0.statExecutedInstType::FloatMultAcc            0      0.00%     83.09% # Class of executed instruction. (Count)
system.cpu2.exec_context.thread_0.statExecutedInstType::FloatDiv            0      0.00%     83.09% # Class of executed instruction. (Count)
system.cpu2.exec_context.thread_0.statExecutedInstType::FloatMisc            0      0.00%     83.09% # Class of executed instruction. (Count)
system.cpu2.exec_context.thread_0.statExecutedInstType::FloatSqrt            0      0.00%     83.09% # Class of executed instruction. (Count)
system.cpu2.exec_context.thread_0.statExecutedInstType::SimdAdd            0      0.00%     83.09% # Class of executed instruction. (Count)
system.cpu2.exec_context.thread_0.statExecutedInstType::SimdAddAcc            0      0.00%     83.09% # Class of executed instruction. (Count)
system.cpu2.exec_context.thread_0.statExecutedInstType::SimdAlu            0      0.00%     83.09% # Class of executed instruction. (Count)
system.cpu2.exec_context.thread_0.statExecutedInstType::SimdCmp            0      0.00%     83.09% # Class of executed instruction. (Count)
system.cpu2.exec_context.thread_0.statExecutedInstType::SimdCvt            0      0.00%     83.09% # Class of executed instruction. (Count)
system.cpu2.exec_context.thread_0.statExecutedInstType::SimdMisc            0      0.00%     83.09% # Class of executed instruction. (Count)
system.cpu2.exec_context.thread_0.statExecutedInstType::SimdMult            0      0.00%     83.09% # Class of executed instruction. (Count)
system.cpu2.exec_context.thread_0.statExecutedInstType::SimdMultAcc            0      0.00%     83.09% # Class of executed instruction. (Count)
system.cpu2.exec_context.thread_0.statExecutedInstType::SimdShift            0      0.00%     83.09% # Class of executed instruction. (Count)
system.cpu2.exec_context.thread_0.statExecutedInstType::SimdShiftAcc            0      0.00%     83.09% # Class of executed instruction. (Count)
system.cpu2.exec_context.thread_0.statExecutedInstType::SimdDiv            0      0.00%     83.09% # Class of executed instruction. (Count)
system.cpu2.exec_context.thread_0.statExecutedInstType::SimdSqrt            0      0.00%     83.09% # Class of executed instruction. (Count)
system.cpu2.exec_context.thread_0.statExecutedInstType::SimdFloatAdd            0      0.00%     83.09% # Class of executed instruction. (Count)
system.cpu2.exec_context.thread_0.statExecutedInstType::SimdFloatAlu            0      0.00%     83.09% # Class of executed instruction. (Count)
system.cpu2.exec_context.thread_0.statExecutedInstType::SimdFloatCmp            0      0.00%     83.09% # Class of executed instruction. (Count)
system.cpu2.exec_context.thread_0.statExecutedInstType::SimdFloatCvt            0      0.00%     83.09% # Class of executed instruction. (Count)
system.cpu2.exec_context.thread_0.statExecutedInstType::SimdFloatDiv            0      0.00%     83.09% # Class of executed instruction. (Count)
system.cpu2.exec_context.thread_0.statExecutedInstType::SimdFloatMisc            0      0.00%     83.09% # Class of executed instruction. (Count)
system.cpu2.exec_context.thread_0.statExecutedInstType::SimdFloatMult            0      0.00%     83.09% # Class of executed instruction. (Count)
system.cpu2.exec_context.thread_0.statExecutedInstType::SimdFloatMultAcc            0      0.00%     83.09% # Class of executed instruction. (Count)
system.cpu2.exec_context.thread_0.statExecutedInstType::SimdFloatSqrt            0      0.00%     83.09% # Class of executed instruction. (Count)
system.cpu2.exec_context.thread_0.statExecutedInstType::SimdReduceAdd            0      0.00%     83.09% # Class of executed instruction. (Count)
system.cpu2.exec_context.thread_0.statExecutedInstType::SimdReduceAlu            0      0.00%     83.09% # Class of executed instruction. (Count)
system.cpu2.exec_context.thread_0.statExecutedInstType::SimdReduceCmp            0      0.00%     83.09% # Class of executed instruction. (Count)
system.cpu2.exec_context.thread_0.statExecutedInstType::SimdFloatReduceAdd            0      0.00%     83.09% # Class of executed instruction. (Count)
system.cpu2.exec_context.thread_0.statExecutedInstType::SimdFloatReduceCmp            0      0.00%     83.09% # Class of executed instruction. (Count)
system.cpu2.exec_context.thread_0.statExecutedInstType::SimdAes            0      0.00%     83.09% # Class of executed instruction. (Count)
system.cpu2.exec_context.thread_0.statExecutedInstType::SimdAesMix            0      0.00%     83.09% # Class of executed instruction. (Count)
system.cpu2.exec_context.thread_0.statExecutedInstType::SimdSha1Hash            0      0.00%     83.09% # Class of executed instruction. (Count)
system.cpu2.exec_context.thread_0.statExecutedInstType::SimdSha1Hash2            0      0.00%     83.09% # Class of executed instruction. (Count)
system.cpu2.exec_context.thread_0.statExecutedInstType::SimdSha256Hash            0      0.00%     83.09% # Class of executed instruction. (Count)
system.cpu2.exec_context.thread_0.statExecutedInstType::SimdSha256Hash2            0      0.00%     83.09% # Class of executed instruction. (Count)
system.cpu2.exec_context.thread_0.statExecutedInstType::SimdShaSigma2            0      0.00%     83.09% # Class of executed instruction. (Count)
system.cpu2.exec_context.thread_0.statExecutedInstType::SimdShaSigma3            0      0.00%     83.09% # Class of executed instruction. (Count)
system.cpu2.exec_context.thread_0.statExecutedInstType::SimdPredAlu            0      0.00%     83.09% # Class of executed instruction. (Count)
system.cpu2.exec_context.thread_0.statExecutedInstType::MemRead      2512234     13.59%     96.69% # Class of executed instruction. (Count)
system.cpu2.exec_context.thread_0.statExecutedInstType::MemWrite       612518      3.31%    100.00% # Class of executed instruction. (Count)
system.cpu2.exec_context.thread_0.statExecutedInstType::FloatMemRead            0      0.00%    100.00% # Class of executed instruction. (Count)
system.cpu2.exec_context.thread_0.statExecutedInstType::FloatMemWrite            0      0.00%    100.00% # Class of executed instruction. (Count)
system.cpu2.exec_context.thread_0.statExecutedInstType::IprAccess            0      0.00%    100.00% # Class of executed instruction. (Count)
system.cpu2.exec_context.thread_0.statExecutedInstType::InstPrefetch            0      0.00%    100.00% # Class of executed instruction. (Count)
system.cpu2.exec_context.thread_0.statExecutedInstType::total     18482783                       # Class of executed instruction. (Count)
system.cpu2.interrupts.clk_domain.clock          8000                       # Clock period in ticks (Tick)
system.cpu2.mmu.dtb.rdAccesses                2512234                       # TLB accesses on read requests (Count)
system.cpu2.mmu.dtb.wrAccesses                 612518                       # TLB accesses on write requests (Count)
system.cpu2.mmu.dtb.rdMisses                       78                       # TLB misses on read requests (Count)
system.cpu2.mmu.dtb.wrMisses                        3                       # TLB misses on write requests (Count)
system.cpu2.mmu.dtb.walker.power_state.pwrStateResidencyTicks::UNDEFINED  26746099500                       # Cumulative time (in ticks) in various power states (Tick)
system.cpu2.mmu.itb.rdAccesses                      0                       # TLB accesses on read requests (Count)
system.cpu2.mmu.itb.wrAccesses               13932340                       # TLB accesses on write requests (Count)
system.cpu2.mmu.itb.rdMisses                        0                       # TLB misses on read requests (Count)
system.cpu2.mmu.itb.wrMisses                       44                       # TLB misses on write requests (Count)
system.cpu2.mmu.itb.walker.power_state.pwrStateResidencyTicks::UNDEFINED  26746099500                       # Cumulative time (in ticks) in various power states (Tick)
system.cpu2.power_state.pwrStateResidencyTicks::ON  26746099500                       # Cumulative time (in ticks) in various power states (Tick)
system.cpu2.thread_0.numInsts                       0                       # Number of Instructions committed (Count)
system.cpu2.thread_0.numOps                         0                       # Number of Ops committed (Count)
system.cpu2.thread_0.numMemRefs                     0                       # Number of Memory References (Count)
system.cpu3.numCycles                        61346866                       # Number of cpu cycles simulated (Cycle)
system.cpu3.numWorkItemsStarted                     0                       # Number of work items this cpu started (Count)
system.cpu3.numWorkItemsCompleted                   0                       # Number of work items this cpu completed (Count)
system.cpu3.exec_context.thread_0.numInsts      8454202                       # Number of instructions committed (Count)
system.cpu3.exec_context.thread_0.numOps     14790071                       # Number of ops (including micro ops) committed (Count)
system.cpu3.exec_context.thread_0.numIntAluAccesses     14785882                       # Number of integer alu accesses (Count)
system.cpu3.exec_context.thread_0.numFpAluAccesses            0                       # Number of float alu accesses (Count)
system.cpu3.exec_context.thread_0.numVecAluAccesses            0                       # Number of vector alu accesses (Count)
system.cpu3.exec_context.thread_0.numCallsReturns           70                       # Number of times a function call or return occured (Count)
system.cpu3.exec_context.thread_0.numCondCtrlInsts       539399                       # Number of instructions that are conditional controls (Count)
system.cpu3.exec_context.thread_0.numIntInsts     14785882                       # Number of integer instructions (Count)
system.cpu3.exec_context.thread_0.numFpInsts            0                       # Number of float instructions (Count)
system.cpu3.exec_context.thread_0.numVecInsts            0                       # Number of vector instructions (Count)
system.cpu3.exec_context.thread_0.numIntRegReads     30060331                       # Number of times the integer registers were read (Count)
system.cpu3.exec_context.thread_0.numIntRegWrites     15292811                       # Number of times the integer registers were written (Count)
system.cpu3.exec_context.thread_0.numFpRegReads            0                       # Number of times the floating registers were read (Count)
system.cpu3.exec_context.thread_0.numFpRegWrites            0                       # Number of times the floating registers were written (Count)
system.cpu3.exec_context.thread_0.numVecRegReads            0                       # Number of times the vector registers were read (Count)
system.cpu3.exec_context.thread_0.numVecRegWrites            0                       # Number of times the vector registers were written (Count)
system.cpu3.exec_context.thread_0.numVecPredRegReads            0                       # Number of times the predicate registers were read (Count)
system.cpu3.exec_context.thread_0.numVecPredRegWrites            0                       # Number of times the predicate registers were written (Count)
system.cpu3.exec_context.thread_0.numCCRegReads      2713127                       # Number of times the CC registers were read (Count)
system.cpu3.exec_context.thread_0.numCCRegWrites      6877931                       # Number of times the CC registers were written (Count)
system.cpu3.exec_context.thread_0.numMemRefs      2630240                       # Number of memory refs (Count)
system.cpu3.exec_context.thread_0.numLoadInsts      2104259                       # Number of load instructions (Count)
system.cpu3.exec_context.thread_0.numStoreInsts       525981                       # Number of store instructions (Count)
system.cpu3.exec_context.thread_0.numIdleCycles 41362025.529254                       # Number of idle cycles (Cycle)
system.cpu3.exec_context.thread_0.numBusyCycles 19984840.470746                       # Number of busy cycles (Cycle)
system.cpu3.exec_context.thread_0.notIdleFraction     0.325768                       # Percentage of non-idle cycles (Ratio)
system.cpu3.exec_context.thread_0.idleFraction     0.674232                       # Percentage of idle cycles (Ratio)
system.cpu3.exec_context.thread_0.numBranches       539970                       # Number of branches fetched (Count)
system.cpu3.exec_context.thread_0.statExecutedInstType::No_OpClass         4166      0.03%      0.03% # Class of executed instruction. (Count)
system.cpu3.exec_context.thread_0.statExecutedInstType::IntAlu     10582799     71.55%     71.58% # Class of executed instruction. (Count)
system.cpu3.exec_context.thread_0.statExecutedInstType::IntMult      1572865     10.63%     82.22% # Class of executed instruction. (Count)
system.cpu3.exec_context.thread_0.statExecutedInstType::IntDiv            7      0.00%     82.22% # Class of executed instruction. (Count)
system.cpu3.exec_context.thread_0.statExecutedInstType::FloatAdd            0      0.00%     82.22% # Class of executed instruction. (Count)
system.cpu3.exec_context.thread_0.statExecutedInstType::FloatCmp            0      0.00%     82.22% # Class of executed instruction. (Count)
system.cpu3.exec_context.thread_0.statExecutedInstType::FloatCvt            0      0.00%     82.22% # Class of executed instruction. (Count)
system.cpu3.exec_context.thread_0.statExecutedInstType::FloatMult            0      0.00%     82.22% # Class of executed instruction. (Count)
system.cpu3.exec_context.thread_0.statExecutedInstType::FloatMultAcc            0      0.00%     82.22% # Class of executed instruction. (Count)
system.cpu3.exec_context.thread_0.statExecutedInstType::FloatDiv            0      0.00%     82.22% # Class of executed instruction. (Count)
system.cpu3.exec_context.thread_0.statExecutedInstType::FloatMisc            0      0.00%     82.22% # Class of executed instruction. (Count)
system.cpu3.exec_context.thread_0.statExecutedInstType::FloatSqrt            0      0.00%     82.22% # Class of executed instruction. (Count)
system.cpu3.exec_context.thread_0.statExecutedInstType::SimdAdd            0      0.00%     82.22% # Class of executed instruction. (Count)
system.cpu3.exec_context.thread_0.statExecutedInstType::SimdAddAcc            0      0.00%     82.22% # Class of executed instruction. (Count)
system.cpu3.exec_context.thread_0.statExecutedInstType::SimdAlu            0      0.00%     82.22% # Class of executed instruction. (Count)
system.cpu3.exec_context.thread_0.statExecutedInstType::SimdCmp            0      0.00%     82.22% # Class of executed instruction. (Count)
system.cpu3.exec_context.thread_0.statExecutedInstType::SimdCvt            0      0.00%     82.22% # Class of executed instruction. (Count)
system.cpu3.exec_context.thread_0.statExecutedInstType::SimdMisc            0      0.00%     82.22% # Class of executed instruction. (Count)
system.cpu3.exec_context.thread_0.statExecutedInstType::SimdMult            0      0.00%     82.22% # Class of executed instruction. (Count)
system.cpu3.exec_context.thread_0.statExecutedInstType::SimdMultAcc            0      0.00%     82.22% # Class of executed instruction. (Count)
system.cpu3.exec_context.thread_0.statExecutedInstType::SimdShift            0      0.00%     82.22% # Class of executed instruction. (Count)
system.cpu3.exec_context.thread_0.statExecutedInstType::SimdShiftAcc            0      0.00%     82.22% # Class of executed instruction. (Count)
system.cpu3.exec_context.thread_0.statExecutedInstType::SimdDiv            0      0.00%     82.22% # Class of executed instruction. (Count)
system.cpu3.exec_context.thread_0.statExecutedInstType::SimdSqrt            0      0.00%     82.22% # Class of executed instruction. (Count)
system.cpu3.exec_context.thread_0.statExecutedInstType::SimdFloatAdd            0      0.00%     82.22% # Class of executed instruction. (Count)
system.cpu3.exec_context.thread_0.statExecutedInstType::SimdFloatAlu            0      0.00%     82.22% # Class of executed instruction. (Count)
system.cpu3.exec_context.thread_0.statExecutedInstType::SimdFloatCmp            0      0.00%     82.22% # Class of executed instruction. (Count)
system.cpu3.exec_context.thread_0.statExecutedInstType::SimdFloatCvt            0      0.00%     82.22% # Class of executed instruction. (Count)
system.cpu3.exec_context.thread_0.statExecutedInstType::SimdFloatDiv            0      0.00%     82.22% # Class of executed instruction. (Count)
system.cpu3.exec_context.thread_0.statExecutedInstType::SimdFloatMisc            0      0.00%     82.22% # Class of executed instruction. (Count)
system.cpu3.exec_context.thread_0.statExecutedInstType::SimdFloatMult            0      0.00%     82.22% # Class of executed instruction. (Count)
system.cpu3.exec_context.thread_0.statExecutedInstType::SimdFloatMultAcc            0      0.00%     82.22% # Class of executed instruction. (Count)
system.cpu3.exec_context.thread_0.statExecutedInstType::SimdFloatSqrt            0      0.00%     82.22% # Class of executed instruction. (Count)
system.cpu3.exec_context.thread_0.statExecutedInstType::SimdReduceAdd            0      0.00%     82.22% # Class of executed instruction. (Count)
system.cpu3.exec_context.thread_0.statExecutedInstType::SimdReduceAlu            0      0.00%     82.22% # Class of executed instruction. (Count)
system.cpu3.exec_context.thread_0.statExecutedInstType::SimdReduceCmp            0      0.00%     82.22% # Class of executed instruction. (Count)
system.cpu3.exec_context.thread_0.statExecutedInstType::SimdFloatReduceAdd            0      0.00%     82.22% # Class of executed instruction. (Count)
system.cpu3.exec_context.thread_0.statExecutedInstType::SimdFloatReduceCmp            0      0.00%     82.22% # Class of executed instruction. (Count)
system.cpu3.exec_context.thread_0.statExecutedInstType::SimdAes            0      0.00%     82.22% # Class of executed instruction. (Count)
system.cpu3.exec_context.thread_0.statExecutedInstType::SimdAesMix            0      0.00%     82.22% # Class of executed instruction. (Count)
system.cpu3.exec_context.thread_0.statExecutedInstType::SimdSha1Hash            0      0.00%     82.22% # Class of executed instruction. (Count)
system.cpu3.exec_context.thread_0.statExecutedInstType::SimdSha1Hash2            0      0.00%     82.22% # Class of executed instruction. (Count)
system.cpu3.exec_context.thread_0.statExecutedInstType::SimdSha256Hash            0      0.00%     82.22% # Class of executed instruction. (Count)
system.cpu3.exec_context.thread_0.statExecutedInstType::SimdSha256Hash2            0      0.00%     82.22% # Class of executed instruction. (Count)
system.cpu3.exec_context.thread_0.statExecutedInstType::SimdShaSigma2            0      0.00%     82.22% # Class of executed instruction. (Count)
system.cpu3.exec_context.thread_0.statExecutedInstType::SimdShaSigma3            0      0.00%     82.22% # Class of executed instruction. (Count)
system.cpu3.exec_context.thread_0.statExecutedInstType::SimdPredAlu            0      0.00%     82.22% # Class of executed instruction. (Count)
system.cpu3.exec_context.thread_0.statExecutedInstType::MemRead      2104259     14.23%     96.44% # Class of executed instruction. (Count)
system.cpu3.exec_context.thread_0.statExecutedInstType::MemWrite       525981      3.56%    100.00% # Class of executed instruction. (Count)
system.cpu3.exec_context.thread_0.statExecutedInstType::FloatMemRead            0      0.00%    100.00% # Class of executed instruction. (Count)
system.cpu3.exec_context.thread_0.statExecutedInstType::FloatMemWrite            0      0.00%    100.00% # Class of executed instruction. (Count)
system.cpu3.exec_context.thread_0.statExecutedInstType::IprAccess            0      0.00%    100.00% # Class of executed instruction. (Count)
system.cpu3.exec_context.thread_0.statExecutedInstType::InstPrefetch            0      0.00%    100.00% # Class of executed instruction. (Count)
system.cpu3.exec_context.thread_0.statExecutedInstType::total     14790077                       # Class of executed instruction. (Count)
system.cpu3.interrupts.clk_domain.clock          8000                       # Clock period in ticks (Tick)
system.cpu3.mmu.dtb.rdAccesses                2104259                       # TLB accesses on read requests (Count)
system.cpu3.mmu.dtb.wrAccesses                 525981                       # TLB accesses on write requests (Count)
system.cpu3.mmu.dtb.rdMisses                       53                       # TLB misses on read requests (Count)
system.cpu3.mmu.dtb.wrMisses                        2                       # TLB misses on write requests (Count)
system.cpu3.mmu.dtb.walker.power_state.pwrStateResidencyTicks::UNDEFINED  26746099500                       # Cumulative time (in ticks) in various power states (Tick)
system.cpu3.mmu.itb.rdAccesses                      0                       # TLB accesses on read requests (Count)
system.cpu3.mmu.itb.wrAccesses               11090190                       # TLB accesses on write requests (Count)
system.cpu3.mmu.itb.rdMisses                        0                       # TLB misses on read requests (Count)
system.cpu3.mmu.itb.wrMisses                       28                       # TLB misses on write requests (Count)
system.cpu3.mmu.itb.walker.power_state.pwrStateResidencyTicks::UNDEFINED  26746099500                       # Cumulative time (in ticks) in various power states (Tick)
system.cpu3.power_state.pwrStateResidencyTicks::ON  26746099500                       # Cumulative time (in ticks) in various power states (Tick)
system.cpu3.thread_0.numInsts                       0                       # Number of Instructions committed (Count)
system.cpu3.thread_0.numOps                         0                       # Number of Ops committed (Count)
system.cpu3.thread_0.numMemRefs                     0                       # Number of Memory References (Count)
system.cpu_clk_domain.clock                       500                       # Clock period in ticks (Tick)
system.cpu_voltage_domain.voltage                   1                       # Voltage in Volts (Volt)
system.mem_ctrls.priorityMinLatency      0.000000000000                       # per QoS priority minimum request to response latency (Second)
system.mem_ctrls.priorityMaxLatency      0.000000000000                       # per QoS priority maximum request to response latency (Second)
system.mem_ctrls.numReadWriteTurnArounds            0                       # Number of turnarounds from READ to WRITE (Count)
system.mem_ctrls.numWriteReadTurnArounds            0                       # Number of turnarounds from WRITE to READ (Count)
system.mem_ctrls.numStayReadState                   0                       # Number of times bus staying in READ state (Count)
system.mem_ctrls.numStayWriteState                  0                       # Number of times bus staying in WRITE state (Count)
system.mem_ctrls.readReqs                           0                       # Number of read requests accepted (Count)
system.mem_ctrls.writeReqs                          0                       # Number of write requests accepted (Count)
system.mem_ctrls.readBursts                         0                       # Number of controller read bursts, including those serviced by the write queue (Count)
system.mem_ctrls.writeBursts                        0                       # Number of controller write bursts, including those merged in the write queue (Count)
system.mem_ctrls.servicedByWrQ                      0                       # Number of controller read bursts serviced by the write queue (Count)
system.mem_ctrls.mergedWrBursts                     0                       # Number of controller write bursts merged with an existing one (Count)
system.mem_ctrls.neitherReadNorWriteReqs            0                       # Number of requests that are neither read nor write (Count)
system.mem_ctrls.avgRdQLen                       0.00                       # Average read queue length when enqueuing ((Count/Tick))
system.mem_ctrls.avgWrQLen                       0.00                       # Average write queue length when enqueuing ((Count/Tick))
system.mem_ctrls.numRdRetry                         0                       # Number of times read queue was full causing retry (Count)
system.mem_ctrls.numWrRetry                         0                       # Number of times write queue was full causing retry (Count)
system.mem_ctrls.readPktSize::0                     0                       # Read request sizes (log2) (Count)
system.mem_ctrls.readPktSize::1                     0                       # Read request sizes (log2) (Count)
system.mem_ctrls.readPktSize::2                     0                       # Read request sizes (log2) (Count)
system.mem_ctrls.readPktSize::3                     0                       # Read request sizes (log2) (Count)
system.mem_ctrls.readPktSize::4                     0                       # Read request sizes (log2) (Count)
system.mem_ctrls.readPktSize::5                     0                       # Read request sizes (log2) (Count)
system.mem_ctrls.readPktSize::6                     0                       # Read request sizes (log2) (Count)
system.mem_ctrls.writePktSize::0                    0                       # Write request sizes (log2) (Count)
system.mem_ctrls.writePktSize::1                    0                       # Write request sizes (log2) (Count)
system.mem_ctrls.writePktSize::2                    0                       # Write request sizes (log2) (Count)
system.mem_ctrls.writePktSize::3                    0                       # Write request sizes (log2) (Count)
system.mem_ctrls.writePktSize::4                    0                       # Write request sizes (log2) (Count)
system.mem_ctrls.writePktSize::5                    0                       # Write request sizes (log2) (Count)
system.mem_ctrls.writePktSize::6                    0                       # Write request sizes (log2) (Count)
system.mem_ctrls.rdQLenPdf::0                       0                       # What read queue length does an incoming req see (Count)
system.mem_ctrls.rdQLenPdf::1                       0                       # What read queue length does an incoming req see (Count)
system.mem_ctrls.rdQLenPdf::2                       0                       # What read queue length does an incoming req see (Count)
system.mem_ctrls.rdQLenPdf::3                       0                       # What read queue length does an incoming req see (Count)
system.mem_ctrls.rdQLenPdf::4                       0                       # What read queue length does an incoming req see (Count)
system.mem_ctrls.rdQLenPdf::5                       0                       # What read queue length does an incoming req see (Count)
system.mem_ctrls.rdQLenPdf::6                       0                       # What read queue length does an incoming req see (Count)
system.mem_ctrls.rdQLenPdf::7                       0                       # What read queue length does an incoming req see (Count)
system.mem_ctrls.rdQLenPdf::8                       0                       # What read queue length does an incoming req see (Count)
system.mem_ctrls.rdQLenPdf::9                       0                       # What read queue length does an incoming req see (Count)
system.mem_ctrls.rdQLenPdf::10                      0                       # What read queue length does an incoming req see (Count)
system.mem_ctrls.rdQLenPdf::11                      0                       # What read queue length does an incoming req see (Count)
system.mem_ctrls.rdQLenPdf::12                      0                       # What read queue length does an incoming req see (Count)
system.mem_ctrls.rdQLenPdf::13                      0                       # What read queue length does an incoming req see (Count)
system.mem_ctrls.rdQLenPdf::14                      0                       # What read queue length does an incoming req see (Count)
system.mem_ctrls.rdQLenPdf::15                      0                       # What read queue length does an incoming req see (Count)
system.mem_ctrls.rdQLenPdf::16                      0                       # What read queue length does an incoming req see (Count)
system.mem_ctrls.rdQLenPdf::17                      0                       # What read queue length does an incoming req see (Count)
system.mem_ctrls.rdQLenPdf::18                      0                       # What read queue length does an incoming req see (Count)
system.mem_ctrls.rdQLenPdf::19                      0                       # What read queue length does an incoming req see (Count)
system.mem_ctrls.rdQLenPdf::20                      0                       # What read queue length does an incoming req see (Count)
system.mem_ctrls.rdQLenPdf::21                      0                       # What read queue length does an incoming req see (Count)
system.mem_ctrls.rdQLenPdf::22                      0                       # What read queue length does an incoming req see (Count)
system.mem_ctrls.rdQLenPdf::23                      0                       # What read queue length does an incoming req see (Count)
system.mem_ctrls.rdQLenPdf::24                      0                       # What read queue length does an incoming req see (Count)
system.mem_ctrls.rdQLenPdf::25                      0                       # What read queue length does an incoming req see (Count)
system.mem_ctrls.rdQLenPdf::26                      0                       # What read queue length does an incoming req see (Count)
system.mem_ctrls.rdQLenPdf::27                      0                       # What read queue length does an incoming req see (Count)
system.mem_ctrls.rdQLenPdf::28                      0                       # What read queue length does an incoming req see (Count)
system.mem_ctrls.rdQLenPdf::29                      0                       # What read queue length does an incoming req see (Count)
system.mem_ctrls.rdQLenPdf::30                      0                       # What read queue length does an incoming req see (Count)
system.mem_ctrls.rdQLenPdf::31                      0                       # What read queue length does an incoming req see (Count)
system.mem_ctrls.wrQLenPdf::0                       0                       # What write queue length does an incoming req see (Count)
system.mem_ctrls.wrQLenPdf::1                       0                       # What write queue length does an incoming req see (Count)
system.mem_ctrls.wrQLenPdf::2                       0                       # What write queue length does an incoming req see (Count)
system.mem_ctrls.wrQLenPdf::3                       0                       # What write queue length does an incoming req see (Count)
system.mem_ctrls.wrQLenPdf::4                       0                       # What write queue length does an incoming req see (Count)
system.mem_ctrls.wrQLenPdf::5                       0                       # What write queue length does an incoming req see (Count)
system.mem_ctrls.wrQLenPdf::6                       0                       # What write queue length does an incoming req see (Count)
system.mem_ctrls.wrQLenPdf::7                       0                       # What write queue length does an incoming req see (Count)
system.mem_ctrls.wrQLenPdf::8                       0                       # What write queue length does an incoming req see (Count)
system.mem_ctrls.wrQLenPdf::9                       0                       # What write queue length does an incoming req see (Count)
system.mem_ctrls.wrQLenPdf::10                      0                       # What write queue length does an incoming req see (Count)
system.mem_ctrls.wrQLenPdf::11                      0                       # What write queue length does an incoming req see (Count)
system.mem_ctrls.wrQLenPdf::12                      0                       # What write queue length does an incoming req see (Count)
system.mem_ctrls.wrQLenPdf::13                      0                       # What write queue length does an incoming req see (Count)
system.mem_ctrls.wrQLenPdf::14                      0                       # What write queue length does an incoming req see (Count)
system.mem_ctrls.wrQLenPdf::15                      0                       # What write queue length does an incoming req see (Count)
system.mem_ctrls.wrQLenPdf::16                      0                       # What write queue length does an incoming req see (Count)
system.mem_ctrls.wrQLenPdf::17                      0                       # What write queue length does an incoming req see (Count)
system.mem_ctrls.wrQLenPdf::18                      0                       # What write queue length does an incoming req see (Count)
system.mem_ctrls.wrQLenPdf::19                      0                       # What write queue length does an incoming req see (Count)
system.mem_ctrls.wrQLenPdf::20                      0                       # What write queue length does an incoming req see (Count)
system.mem_ctrls.wrQLenPdf::21                      0                       # What write queue length does an incoming req see (Count)
system.mem_ctrls.wrQLenPdf::22                      0                       # What write queue length does an incoming req see (Count)
system.mem_ctrls.wrQLenPdf::23                      0                       # What write queue length does an incoming req see (Count)
system.mem_ctrls.wrQLenPdf::24                      0                       # What write queue length does an incoming req see (Count)
system.mem_ctrls.wrQLenPdf::25                      0                       # What write queue length does an incoming req see (Count)
system.mem_ctrls.wrQLenPdf::26                      0                       # What write queue length does an incoming req see (Count)
system.mem_ctrls.wrQLenPdf::27                      0                       # What write queue length does an incoming req see (Count)
system.mem_ctrls.wrQLenPdf::28                      0                       # What write queue length does an incoming req see (Count)
system.mem_ctrls.wrQLenPdf::29                      0                       # What write queue length does an incoming req see (Count)
system.mem_ctrls.wrQLenPdf::30                      0                       # What write queue length does an incoming req see (Count)
system.mem_ctrls.wrQLenPdf::31                      0                       # What write queue length does an incoming req see (Count)
system.mem_ctrls.wrQLenPdf::32                      0                       # What write queue length does an incoming req see (Count)
system.mem_ctrls.wrQLenPdf::33                      0                       # What write queue length does an incoming req see (Count)
system.mem_ctrls.wrQLenPdf::34                      0                       # What write queue length does an incoming req see (Count)
system.mem_ctrls.wrQLenPdf::35                      0                       # What write queue length does an incoming req see (Count)
system.mem_ctrls.wrQLenPdf::36                      0                       # What write queue length does an incoming req see (Count)
system.mem_ctrls.wrQLenPdf::37                      0                       # What write queue length does an incoming req see (Count)
system.mem_ctrls.wrQLenPdf::38                      0                       # What write queue length does an incoming req see (Count)
system.mem_ctrls.wrQLenPdf::39                      0                       # What write queue length does an incoming req see (Count)
system.mem_ctrls.wrQLenPdf::40                      0                       # What write queue length does an incoming req see (Count)
system.mem_ctrls.wrQLenPdf::41                      0                       # What write queue length does an incoming req see (Count)
system.mem_ctrls.wrQLenPdf::42                      0                       # What write queue length does an incoming req see (Count)
system.mem_ctrls.wrQLenPdf::43                      0                       # What write queue length does an incoming req see (Count)
system.mem_ctrls.wrQLenPdf::44                      0                       # What write queue length does an incoming req see (Count)
system.mem_ctrls.wrQLenPdf::45                      0                       # What write queue length does an incoming req see (Count)
system.mem_ctrls.wrQLenPdf::46                      0                       # What write queue length does an incoming req see (Count)
system.mem_ctrls.wrQLenPdf::47                      0                       # What write queue length does an incoming req see (Count)
system.mem_ctrls.wrQLenPdf::48                      0                       # What write queue length does an incoming req see (Count)
system.mem_ctrls.wrQLenPdf::49                      0                       # What write queue length does an incoming req see (Count)
system.mem_ctrls.wrQLenPdf::50                      0                       # What write queue length does an incoming req see (Count)
system.mem_ctrls.wrQLenPdf::51                      0                       # What write queue length does an incoming req see (Count)
system.mem_ctrls.wrQLenPdf::52                      0                       # What write queue length does an incoming req see (Count)
system.mem_ctrls.wrQLenPdf::53                      0                       # What write queue length does an incoming req see (Count)
system.mem_ctrls.wrQLenPdf::54                      0                       # What write queue length does an incoming req see (Count)
system.mem_ctrls.wrQLenPdf::55                      0                       # What write queue length does an incoming req see (Count)
system.mem_ctrls.wrQLenPdf::56                      0                       # What write queue length does an incoming req see (Count)
system.mem_ctrls.wrQLenPdf::57                      0                       # What write queue length does an incoming req see (Count)
system.mem_ctrls.wrQLenPdf::58                      0                       # What write queue length does an incoming req see (Count)
system.mem_ctrls.wrQLenPdf::59                      0                       # What write queue length does an incoming req see (Count)
system.mem_ctrls.wrQLenPdf::60                      0                       # What write queue length does an incoming req see (Count)
system.mem_ctrls.wrQLenPdf::61                      0                       # What write queue length does an incoming req see (Count)
system.mem_ctrls.wrQLenPdf::62                      0                       # What write queue length does an incoming req see (Count)
system.mem_ctrls.wrQLenPdf::63                      0                       # What write queue length does an incoming req see (Count)
system.mem_ctrls.bytesReadWrQ                       0                       # Total number of bytes read from write queue (Byte)
system.mem_ctrls.bytesReadSys                       0                       # Total read bytes from the system interface side (Byte)
system.mem_ctrls.bytesWrittenSys                    0                       # Total written bytes from the system interface side (Byte)
system.mem_ctrls.avgRdBWSys                0.00000000                       # Average system read bandwidth in Byte/s ((Byte/Second))
system.mem_ctrls.avgWrBWSys                0.00000000                       # Average system write bandwidth in Byte/s ((Byte/Second))
system.mem_ctrls.totGap                             0                       # Total gap between requests (Tick)
system.mem_ctrls.avgGap                           nan                       # Average gap between requests ((Tick/Count))
system.mem_ctrls.dram.bytesRead::cpu0.inst    219937368                       # Number of bytes read from this memory (Byte)
system.mem_ctrls.dram.bytesRead::cpu0.data     24373315                       # Number of bytes read from this memory (Byte)
system.mem_ctrls.dram.bytesRead::cpu1.inst     97425232                       # Number of bytes read from this memory (Byte)
system.mem_ctrls.dram.bytesRead::cpu1.data      9027186                       # Number of bytes read from this memory (Byte)
system.mem_ctrls.dram.bytesRead::cpu2.inst    111458720                       # Number of bytes read from this memory (Byte)
system.mem_ctrls.dram.bytesRead::cpu2.data     10075539                       # Number of bytes read from this memory (Byte)
system.mem_ctrls.dram.bytesRead::cpu3.inst     88721520                       # Number of bytes read from this memory (Byte)
system.mem_ctrls.dram.bytesRead::cpu3.data      8418258                       # Number of bytes read from this memory (Byte)
system.mem_ctrls.dram.bytesRead::total      569437138                       # Number of bytes read from this memory (Byte)
system.mem_ctrls.dram.bytesInstRead::cpu0.inst    219937368                       # Number of instructions bytes read from this memory (Byte)
system.mem_ctrls.dram.bytesInstRead::cpu1.inst     97425232                       # Number of instructions bytes read from this memory (Byte)
system.mem_ctrls.dram.bytesInstRead::cpu2.inst    111458720                       # Number of instructions bytes read from this memory (Byte)
system.mem_ctrls.dram.bytesInstRead::cpu3.inst     88721520                       # Number of instructions bytes read from this memory (Byte)
system.mem_ctrls.dram.bytesInstRead::total    517542840                       # Number of instructions bytes read from this memory (Byte)
system.mem_ctrls.dram.bytesWritten::cpu0.data      5189363                       # Number of bytes written to this memory (Byte)
system.mem_ctrls.dram.bytesWritten::cpu1.data      2245986                       # Number of bytes written to this memory (Byte)
system.mem_ctrls.dram.bytesWritten::cpu2.data      2475996                       # Number of bytes written to this memory (Byte)
system.mem_ctrls.dram.bytesWritten::cpu3.data      2104568                       # Number of bytes written to this memory (Byte)
system.mem_ctrls.dram.bytesWritten::total     12015913                       # Number of bytes written to this memory (Byte)
system.mem_ctrls.dram.numReads::cpu0.inst     27492171                       # Number of read requests responded to by this memory (Count)
system.mem_ctrls.dram.numReads::cpu0.data      4856969                       # Number of read requests responded to by this memory (Count)
system.mem_ctrls.dram.numReads::cpu1.inst     12178154                       # Number of read requests responded to by this memory (Count)
system.mem_ctrls.dram.numReads::cpu1.data      2253920                       # Number of read requests responded to by this memory (Count)
system.mem_ctrls.dram.numReads::cpu2.inst     13932340                       # Number of read requests responded to by this memory (Count)
system.mem_ctrls.dram.numReads::cpu2.data      2512234                       # Number of read requests responded to by this memory (Count)
[...]
system.mem_ctrls.dram.perBankRdBursts::1            0                       # Per bank write bursts (Count)
system.mem_ctrls.dram.perBankRdBursts::2            0                       # Per bank write bursts (Count)
system.mem_ctrls.dram.perBankRdBursts::3            0                       # Per bank write bursts (Count)
system.mem_ctrls.dram.perBankRdBursts::4            0                       # Per bank write bursts (Count)
system.mem_ctrls.dram.perBankRdBursts::5            0                       # Per bank write bursts (Count)
system.mem_ctrls.dram.perBankRdBursts::6            0                       # Per bank write bursts (Count)
system.mem_ctrls.dram.perBankRdBursts::7            0                       # Per bank write bursts (Count)
system.mem_ctrls.dram.perBankRdBursts::8            0                       # Per bank write bursts (Count)
system.mem_ctrls.dram.perBankRdBursts::9            0                       # Per bank write bursts (Count)
system.mem_ctrls.dram.perBankRdBursts::10            0                       # Per bank write bursts (Count)
system.mem_ctrls.dram.perBankRdBursts::11            0                       # Per bank write bursts (Count)
system.mem_ctrls.dram.perBankRdBursts::12            0                       # Per bank write bursts (Count)
system.mem_ctrls.dram.perBankRdBursts::13            0                       # Per bank write bursts (Count)
system.mem_ctrls.dram.perBankRdBursts::14            0                       # Per bank write bursts (Count)
system.mem_ctrls.dram.perBankRdBursts::15            0                       # Per bank write bursts (Count)
system.mem_ctrls.dram.perBankWrBursts::0            0                       # Per bank write bursts (Count)
system.mem_ctrls.dram.perBankWrBursts::1            0                       # Per bank write bursts (Count)
system.mem_ctrls.dram.perBankWrBursts::2            0                       # Per bank write bursts (Count)
system.mem_ctrls.dram.perBankWrBursts::3            0                       # Per bank write bursts (Count)
system.mem_ctrls.dram.perBankWrBursts::4            0                       # Per bank write bursts (Count)
system.mem_ctrls.dram.perBankWrBursts::5            0                       # Per bank write bursts (Count)
system.mem_ctrls.dram.perBankWrBursts::6            0                       # Per bank write bursts (Count)
system.mem_ctrls.dram.perBankWrBursts::7            0                       # Per bank write bursts (Count)
system.mem_ctrls.dram.perBankWrBursts::8            0                       # Per bank write bursts (Count)
system.mem_ctrls.dram.perBankWrBursts::9            0                       # Per bank write bursts (Count)
system.mem_ctrls.dram.perBankWrBursts::10            0                       # Per bank write bursts (Count)
system.mem_ctrls.dram.perBankWrBursts::11            0                       # Per bank write bursts (Count)
system.mem_ctrls.dram.perBankWrBursts::12            0                       # Per bank write bursts (Count)
system.mem_ctrls.dram.perBankWrBursts::13            0                       # Per bank write bursts (Count)
system.mem_ctrls.dram.perBankWrBursts::14            0                       # Per bank write bursts (Count)
system.mem_ctrls.dram.perBankWrBursts::15            0                       # Per bank write bursts (Count)
system.mem_ctrls.dram.totQLat                       0                       # Total ticks spent queuing (Tick)
system.mem_ctrls.dram.totBusLat                     0                       # Total ticks spent in databus transfers (Tick)
system.mem_ctrls.dram.totMemAccLat                  0                       # Total ticks spent from burst creation until serviced by the DRAM (Tick)
system.mem_ctrls.dram.avgQLat                     nan                       # Average queueing delay per DRAM burst ((Tick/Count))
system.mem_ctrls.dram.avgBusLat                   nan                       # Average bus latency per DRAM burst ((Tick/Count))
system.mem_ctrls.dram.avgMemAccLat                nan                       # Average memory access latency per DRAM burst ((Tick/Count))
system.mem_ctrls.dram.readRowHits                   0                       # Number of row buffer hits during reads (Count)
system.mem_ctrls.dram.writeRowHits                  0                       # Number of row buffer hits during writes (Count)
system.mem_ctrls.dram.readRowHitRate              nan                       # Row buffer hit rate for reads (Ratio)
system.mem_ctrls.dram.writeRowHitRate             nan                       # Row buffer hit rate for writes (Ratio)
system.mem_ctrls.dram.bytesRead                     0                       # Total number of bytes read from DRAM (Byte)
system.mem_ctrls.dram.bytesWritten                  0                       # Total number of bytes written to DRAM (Byte)
system.mem_ctrls.dram.avgRdBW                       0                       # Average DRAM read bandwidth in MiBytes/s ((Byte/Second))
system.mem_ctrls.dram.avgWrBW                       0                       # Average DRAM write bandwidth in MiBytes/s ((Byte/Second))
system.mem_ctrls.dram.peakBW                 12800.00                       # Theoretical peak bandwidth in MiByte/s ((Byte/Second))
system.mem_ctrls.dram.busUtil                    0.00                       # Data bus utilization in percentage (Ratio)
system.mem_ctrls.dram.busUtilRead                0.00                       # Data bus utilization in percentage for reads (Ratio)
system.mem_ctrls.dram.busUtilWrite               0.00                       # Data bus utilization in percentage for writes (Ratio)
system.mem_ctrls.dram.pageHitRate                 nan                       # Row buffer hit rate, read and write combined (Ratio)
system.mem_ctrls.dram.power_state.pwrStateResidencyTicks::UNDEFINED  26746099500                       # Cumulative time (in ticks) in various power states (Tick)
system.mem_ctrls.dram.rank0.actEnergy               0                       # Energy for activate commands per rank (pJ) (Joule)
system.mem_ctrls.dram.rank0.preEnergy               0                       # Energy for precharge commands per rank (pJ) (Joule)
system.mem_ctrls.dram.rank0.readEnergy              0                       # Energy for read commands per rank (pJ) (Joule)
system.mem_ctrls.dram.rank0.writeEnergy             0                       # Energy for write commands per rank (pJ) (Joule)
system.mem_ctrls.dram.rank0.refreshEnergy            0                       # Energy for refresh commands per rank (pJ) (Joule)
system.mem_ctrls.dram.rank0.actBackEnergy            0                       # Energy for active background per rank (pJ) (Joule)
system.mem_ctrls.dram.rank0.preBackEnergy  10270502400                       # Energy for precharge background per rank (pJ) (Joule)
system.mem_ctrls.dram.rank0.actPowerDownEnergy            0                       # Energy for active power-down per rank (pJ) (Joule)
system.mem_ctrls.dram.rank0.prePowerDownEnergy            0                       # Energy for precharge power-down per rank (pJ) (Joule)
system.mem_ctrls.dram.rank0.selfRefreshEnergy            0                       # Energy for self refresh per rank (pJ) (Joule)
system.mem_ctrls.dram.rank0.totalEnergy   10270502400                       # Total energy per rank (pJ) (Joule)
system.mem_ctrls.dram.rank0.averagePower   384.000007                       # Core power per rank (mW) (Watt)
system.mem_ctrls.dram.rank0.totalIdleTime            0                       # Total Idle time Per DRAM Rank (Tick)
system.mem_ctrls.dram.rank0.pwrStateTime::IDLE  26746099500                       # Time in different power states (Tick)
system.mem_ctrls.dram.rank0.pwrStateTime::REF            0                       # Time in different power states (Tick)
system.mem_ctrls.dram.rank0.pwrStateTime::SREF            0                       # Time in different power states (Tick)
system.mem_ctrls.dram.rank0.pwrStateTime::PRE_PDN            0                       # Time in different power states (Tick)
system.mem_ctrls.dram.rank0.pwrStateTime::ACT            0                       # Time in different power states (Tick)
system.mem_ctrls.dram.rank0.pwrStateTime::ACT_PDN            0                       # Time in different power states (Tick)
system.mem_ctrls.dram.rank1.actEnergy               0                       # Energy for activate commands per rank (pJ) (Joule)
system.mem_ctrls.dram.rank1.preEnergy               0                       # Energy for precharge commands per rank (pJ) (Joule)
system.mem_ctrls.dram.rank1.readEnergy              0                       # Energy for read commands per rank (pJ) (Joule)
system.mem_ctrls.dram.rank1.writeEnergy             0                       # Energy for write commands per rank (pJ) (Joule)
system.mem_ctrls.dram.rank1.refreshEnergy            0                       # Energy for refresh commands per rank (pJ) (Joule)
system.mem_ctrls.dram.rank1.actBackEnergy            0                       # Energy for active background per rank (pJ) (Joule)
system.mem_ctrls.dram.rank1.preBackEnergy  10270502400                       # Energy for precharge background per rank (pJ) (Joule)
system.mem_ctrls.dram.rank1.actPowerDownEnergy            0                       # Energy for active power-down per rank (pJ) (Joule)
system.mem_ctrls.dram.rank1.prePowerDownEnergy            0                       # Energy for precharge power-down per rank (pJ) (Joule)
system.mem_ctrls.dram.rank1.selfRefreshEnergy            0                       # Energy for self refresh per rank (pJ) (Joule)
system.mem_ctrls.dram.rank1.totalEnergy   10270502400                       # Total energy per rank (pJ) (Joule)
system.mem_ctrls.dram.rank1.averagePower   384.000007                       # Core power per rank (mW) (Watt)
system.mem_ctrls.dram.rank1.totalIdleTime            0                       # Total Idle time Per DRAM Rank (Tick)
system.mem_ctrls.dram.rank1.pwrStateTime::IDLE  26746099500                       # Time in different power states (Tick)
system.mem_ctrls.dram.rank1.pwrStateTime::REF            0                       # Time in different power states (Tick)
system.mem_ctrls.dram.rank1.pwrStateTime::SREF            0                       # Time in different power states (Tick)
system.mem_ctrls.dram.rank1.pwrStateTime::PRE_PDN            0                       # Time in different power states (Tick)
system.mem_ctrls.dram.rank1.pwrStateTime::ACT            0                       # Time in different power states (Tick)
system.mem_ctrls.dram.rank1.pwrStateTime::ACT_PDN            0                       # Time in different power states (Tick)
system.mem_ctrls.power_state.pwrStateResidencyTicks::UNDEFINED  26746099500                       # Cumulative time (in ticks) in various power states (Tick)
system.membus.transDist::ReadReq             76420237                       # Transaction distribution (Count)
system.membus.transDist::ReadResp            76420237                       # Transaction distribution (Count)
system.membus.transDist::WriteReq             2819044                       # Transaction distribution (Count)
system.membus.transDist::WriteResp            2819044                       # Transaction distribution (Count)
system.membus.pktCount_system.cpu0.icache_port::system.mem_ctrls.port     54984342                       # Packet count per connected requestor and responder (Count)
system.membus.pktCount_system.cpu0.icache_port::total     54984342                       # Packet count per connected requestor and responder (Count)
system.membus.pktCount_system.cpu0.dcache_port::system.mem_ctrls.port     11957054                       # Packet count per connected requestor and responder (Count)
system.membus.pktCount_system.cpu0.dcache_port::total     11957054                       # Packet count per connected requestor and responder (Count)
system.membus.pktCount_system.cpu1.icache_port::system.mem_ctrls.port     24356308                       # Packet count per connected requestor and responder (Count)
system.membus.pktCount_system.cpu1.icache_port::total     24356308                       # Packet count per connected requestor and responder (Count)
system.membus.pktCount_system.cpu1.dcache_port::system.mem_ctrls.port      5625814                       # Packet count per connected requestor and responder (Count)
system.membus.pktCount_system.cpu1.dcache_port::total      5625814                       # Packet count per connected requestor and responder (Count)
system.membus.pktCount_system.cpu2.icache_port::system.mem_ctrls.port     27864680                       # Packet count per connected requestor and responder (Count)
system.membus.pktCount_system.cpu2.icache_port::total     27864680                       # Packet count per connected requestor and responder (Count)
system.membus.pktCount_system.cpu2.dcache_port::system.mem_ctrls.port      6249504                       # Packet count per connected requestor and responder (Count)
system.membus.pktCount_system.cpu2.dcache_port::total      6249504                       # Packet count per connected requestor and responder (Count)
system.membus.pktCount_system.cpu3.icache_port::system.mem_ctrls.port     22180380                       # Packet count per connected requestor and responder (Count)
system.membus.pktCount_system.cpu3.icache_port::total     22180380                       # Packet count per connected requestor and responder (Count)
system.membus.pktCount_system.cpu3.dcache_port::system.mem_ctrls.port      5260480                       # Packet count per connected requestor and responder (Count)
system.membus.pktCount_system.cpu3.dcache_port::total      5260480                       # Packet count per connected requestor and responder (Count)
system.membus.pktCount::total               158478562                       # Packet count per connected requestor and responder (Count)
system.membus.pktSize_system.cpu0.icache_port::system.mem_ctrls.port    219937368                       # Cumulative packet size per connected requestor and responder (Byte)
system.membus.pktSize_system.cpu0.icache_port::total    219937368                       # Cumulative packet size per connected requestor and responder (Byte)
system.membus.pktSize_system.cpu0.dcache_port::system.mem_ctrls.port     29562678                       # Cumulative packet size per connected requestor and responder (Byte)
system.membus.pktSize_system.cpu0.dcache_port::total     29562678                       # Cumulative packet size per connected requestor and responder (Byte)
system.membus.pktSize_system.cpu1.icache_port::system.mem_ctrls.port     97425232                       # Cumulative packet size per connected requestor and responder (Byte)
system.membus.pktSize_system.cpu1.icache_port::total     97425232                       # Cumulative packet size per connected requestor and responder (Byte)
system.membus.pktSize_system.cpu1.dcache_port::system.mem_ctrls.port     11273172                       # Cumulative packet size per connected requestor and responder (Byte)
system.membus.pktSize_system.cpu1.dcache_port::total     11273172                       # Cumulative packet size per connected requestor and responder (Byte)
system.membus.pktSize_system.cpu2.icache_port::system.mem_ctrls.port    111458720                       # Cumulative packet size per connected requestor and responder (Byte)
system.membus.pktSize_system.cpu2.icache_port::total    111458720                       # Cumulative packet size per connected requestor and responder (Byte)
system.membus.pktSize_system.cpu2.dcache_port::system.mem_ctrls.port     12551535                       # Cumulative packet size per connected requestor and responder (Byte)
system.membus.pktSize_system.cpu2.dcache_port::total     12551535                       # Cumulative packet size per connected requestor and responder (Byte)
system.membus.pktSize_system.cpu3.icache_port::system.mem_ctrls.port     88721520                       # Cumulative packet size per connected requestor and responder (Byte)
system.membus.pktSize_system.cpu3.icache_port::total     88721520                       # Cumulative packet size per connected requestor and responder (Byte)
system.membus.pktSize_system.cpu3.dcache_port::system.mem_ctrls.port     10522826                       # Cumulative packet size per connected requestor and responder (Byte)
system.membus.pktSize_system.cpu3.dcache_port::total     10522826                       # Cumulative packet size per connected requestor and responder (Byte)
system.membus.pktSize::total                581453051                       # Cumulative packet size per connected requestor and responder (Byte)
system.membus.snoops                                0                       # Total snoops (Count)
system.membus.snoopTraffic                          0                       # Total snoop traffic (Byte)
system.membus.snoopFanout::samples           79239281                       # Request fanout histogram (Count)
system.membus.snoopFanout::mean                     0                       # Request fanout histogram (Count)
system.membus.snoopFanout::stdev                    0                       # Request fanout histogram (Count)
system.membus.snoopFanout::underflows               0      0.00%      0.00% # Request fanout histogram (Count)
system.membus.snoopFanout::0                 79239281    100.00%    100.00% # Request fanout histogram (Count)
system.membus.snoopFanout::1                        0      0.00%    100.00% # Request fanout histogram (Count)
system.membus.snoopFanout::2                        0      0.00%    100.00% # Request fanout histogram (Count)
system.membus.snoopFanout::3                        0      0.00%    100.00% # Request fanout histogram (Count)
system.membus.snoopFanout::4                        0      0.00%    100.00% # Request fanout histogram (Count)
system.membus.snoopFanout::overflows                0      0.00%    100.00% # Request fanout histogram (Count)
system.membus.snoopFanout::min_value                0                       # Request fanout histogram (Count)
system.membus.snoopFanout::max_value                0                       # Request fanout histogram (Count)
system.membus.snoopFanout::total             79239281                       # Request fanout histogram (Count)
system.membus.power_state.pwrStateResidencyTicks::UNDEFINED  26746099500                       # Cumulative time (in ticks) in various power states (Tick)
system.membus.snoop_filter.totRequests              0                       # Total number of requests made to the snoop filter. (Count)
system.membus.snoop_filter.hitSingleRequests            0                       # Number of requests hitting in the snoop filter with a single holder of the requested data. (Count)
system.membus.snoop_filter.hitMultiRequests            0                       # Number of requests hitting in the snoop filter with multiple (>1) holders of the requested data. (Count)
system.membus.snoop_filter.totSnoops                0                       # Total number of snoops made to the snoop filter. (Count)
system.membus.snoop_filter.hitSingleSnoops            0                       # Number of snoops hitting in the snoop filter with a single holder of the requested data. (Count)
system.membus.snoop_filter.hitMultiSnoops            0                       # Number of snoops hitting in the snoop filter with multiple (>1) holders of the requested data. (Count)
system.voltage_domain.voltage                       1                       # Voltage in Volts (Volt)
system.workload.inst.arm                            0                       # number of arm instructions executed (Count)
system.workload.inst.quiesce                        0                       # number of quiesce instructions executed (Count)

---------- End Simulation Statistics   ----------
