
---------- Begin Simulation Statistics ----------
simSeconds                                   5.050590                       # Number of seconds simulated (Second)
simTicks                                 5050590311000                       # Number of ticks simulated (Tick)
finalTick                                5050590311000                       # Number of ticks from beginning of simulation (restored from checkpoints and never reset) (Tick)
simFreq                                  1000000000000                       # The number of ticks per simulated second ((Tick/Second))
hostSeconds                                   1943.48                       # Real time elapsed on the host (Second)
hostTickRate                               2598740169                       # The number of ticks simulated per host second (ticks/s) ((Tick/Second))
hostMemory                                    2232172                       # Number of bytes of host memory used (Byte)
simInsts                                    327161082                       # Number of instructions simulated (Count)
simOps                                      785120359                       # Number of ops (including micro ops) simulated (Count)
hostInstRate                                   168338                       # Simulator instruction rate (inst/s) ((Count/Second))
hostOpRate                                     403977                       # Simulator op (including micro ops) rate (op/s) ((Count/Second))
system.clk_domain.clock                          1000                       # Clock period in ticks (Tick)
system.cpu0.numCycles                     10100600940                       # Number of cpu cycles simulated (Cycle)
system.cpu0.numWorkItemsStarted                     0                       # Number of work items this cpu started (Count)
system.cpu0.numWorkItemsCompleted                   0                       # Number of work items this cpu completed (Count)
system.cpu0.exec_context.thread_0.numInsts    211410432                       # Number of instructions committed (Count)
system.cpu0.exec_context.thread_0.numOps    556311169                       # Number of ops (including micro ops) committed (Count)
system.cpu0.exec_context.thread_0.numIntAluAccesses    497895264                       # Number of integer alu accesses (Count)
system.cpu0.exec_context.thread_0.numFpAluAccesses        18703                       # Number of float alu accesses (Count)
system.cpu0.exec_context.thread_0.numVecAluAccesses            0                       # Number of vector alu accesses (Count)
system.cpu0.exec_context.thread_0.numCallsReturns      3034966                       # Number of times a function call or return occured (Count)
system.cpu0.exec_context.thread_0.numCondCtrlInsts     70406183                       # Number of instructions that are conditional controls (Count)
system.cpu0.exec_context.thread_0.numIntInsts    497895264                       # Number of integer instructions (Count)
system.cpu0.exec_context.thread_0.numFpInsts        18703                       # Number of float instructions (Count)
system.cpu0.exec_context.thread_0.numVecInsts            0                       # Number of vector instructions (Count)
system.cpu0.exec_context.thread_0.numIntRegReads    820697340                       # Number of times the integer registers were read (Count)
system.cpu0.exec_context.thread_0.numIntRegWrites    413391268                       # Number of times the integer registers were written (Count)
system.cpu0.exec_context.thread_0.numFpRegReads        31717                       # Number of times the floating registers were read (Count)
system.cpu0.exec_context.thread_0.numFpRegWrites        14910                       # Number of times the floating registers were written (Count)
system.cpu0.exec_context.thread_0.numVecRegReads            0                       # Number of times the vector registers were read (Count)
system.cpu0.exec_context.thread_0.numVecRegWrites            0                       # Number of times the vector registers were written (Count)
system.cpu0.exec_context.thread_0.numVecPredRegReads            0                       # Number of times the predicate registers were read (Count)
system.cpu0.exec_context.thread_0.numVecPredRegWrites            0                       # Number of times the predicate registers were written (Count)
system.cpu0.exec_context.thread_0.numCCRegReads    373216652                       # Number of times the CC registers were read (Count)
system.cpu0.exec_context.thread_0.numCCRegWrites    160501291                       # Number of times the CC registers were written (Count)
system.cpu0.exec_context.thread_0.numMemRefs     84707388                       # Number of memory refs (Count)
system.cpu0.exec_context.thread_0.numLoadInsts     61999141                       # Number of load instructions (Count)
system.cpu0.exec_context.thread_0.numStoreInsts     22708247                       # Number of store instructions (Count)
system.cpu0.exec_context.thread_0.numIdleCycles 9223430593.979548                       # Number of idle cycles (Cycle)
system.cpu0.exec_context.thread_0.numBusyCycles 877170346.020453                       # Number of busy cycles (Cycle)
system.cpu0.exec_context.thread_0.notIdleFraction     0.086843                       # Percentage of non-idle cycles (Ratio)
system.cpu0.exec_context.thread_0.idleFraction     0.913157                       # Percentage of idle cycles (Ratio)
system.cpu0.exec_context.thread_0.numBranches     75218164                       # Number of branches fetched (Count)
system.cpu0.exec_context.thread_0.statExecutedInstType::No_OpClass     13720916      2.47%      2.47% # Class of executed instruction. (Count)
system.cpu0.exec_context.thread_0.statExecutedInstType::IntAlu    457510484     82.24%     84.71% # Class of executed instruction. (Count)
system.cpu0.exec_context.thread_0.statExecutedInstType::IntMult       322651      0.06%     84.76% # Class of executed instruction. (Count)
system.cpu0.exec_context.thread_0.statExecutedInstType::IntDiv        41158      0.01%     84.77% # Class of executed instruction. (Count)
system.cpu0.exec_context.thread_0.statExecutedInstType::FloatAdd          440      0.00%     84.77% # Class of executed instruction. (Count)
system.cpu0.exec_context.thread_0.statExecutedInstType::FloatCmp            0      0.00%     84.77% # Class of executed instruction. (Count)
system.cpu0.exec_context.thread_0.statExecutedInstType::FloatCvt           16      0.00%     84.77% # Class of executed instruction. (Count)
system.cpu0.exec_context.thread_0.statExecutedInstType::FloatMult            0      0.00%     84.77% # Class of executed instruction. (Count)
system.cpu0.exec_context.thread_0.statExecutedInstType::FloatMultAcc            0      0.00%     84.77% # Class of executed instruction. (Count)
system.cpu0.exec_context.thread_0.statExecutedInstType::FloatDiv            0      0.00%     84.77% # Class of executed instruction. (Count)
system.cpu0.exec_context.thread_0.statExecutedInstType::FloatMisc            0      0.00%     84.77% # Class of executed instruction. (Count)
system.cpu0.exec_context.thread_0.statExecutedInstType::FloatSqrt            0      0.00%     84.77% # Class of executed instruction. (Count)
system.cpu0.exec_context.thread_0.statExecutedInstType::SimdAdd          628      0.00%     84.77% # Class of executed instruction. (Count)
system.cpu0.exec_context.thread_0.statExecutedInstType::SimdAddAcc            0      0.00%     84.77% # Class of executed instruction. (Count)
system.cpu0.exec_context.thread_0.statExecutedInstType::SimdAlu         1584      0.00%     84.77% # Class of executed instruction. (Count)
system.cpu0.exec_context.thread_0.statExecutedInstType::SimdCmp            0      0.00%     84.77% # Class of executed instruction. (Count)
system.cpu0.exec_context.thread_0.statExecutedInstType::SimdCvt         4254      0.00%     84.77% # Class of executed instruction. (Count)
system.cpu0.exec_context.thread_0.statExecutedInstType::SimdMisc         6328      0.00%     84.77% # Class of executed instruction. (Count)
system.cpu0.exec_context.thread_0.statExecutedInstType::SimdMult            0      0.00%     84.77% # Class of executed instruction. (Count)
system.cpu0.exec_context.thread_0.statExecutedInstType::SimdMultAcc            0      0.00%     84.77% # Class of executed instruction. (Count)
system.cpu0.exec_context.thread_0.statExecutedInstType::SimdShift          330      0.00%     84.77% # Class of executed instruction. (Count)
system.cpu0.exec_context.thread_0.statExecutedInstType::SimdShiftAcc            0      0.00%     84.77% # Class of executed instruction. (Count)
system.cpu0.exec_context.thread_0.statExecutedInstType::SimdDiv            0      0.00%     84.77% # Class of executed instruction. (Count)
system.cpu0.exec_context.thread_0.statExecutedInstType::SimdSqrt            0      0.00%     84.77% # Class of executed instruction. (Count)
system.cpu0.exec_context.thread_0.statExecutedInstType::SimdFloatAdd            0      0.00%     84.77% # Class of executed instruction. (Count)
system.cpu0.exec_context.thread_0.statExecutedInstType::SimdFloatAlu            0      0.00%     84.77% # Class of executed instruction. (Count)
system.cpu0.exec_context.thread_0.statExecutedInstType::SimdFloatCmp            0      0.00%     84.77% # Class of executed instruction. (Count)
system.cpu0.exec_context.thread_0.statExecutedInstType::SimdFloatCvt            0      0.00%     84.77% # Class of executed instruction. (Count)
system.cpu0.exec_context.thread_0.statExecutedInstType::SimdFloatDiv            0      0.00%     84.77% # Class of executed instruction. (Count)
system.cpu0.exec_context.thread_0.statExecutedInstType::SimdFloatMisc            0      0.00%     84.77% # Class of executed instruction. (Count)
system.cpu0.exec_context.thread_0.statExecutedInstType::SimdFloatMult            0      0.00%     84.77% # Class of executed instruction. (Count)
system.cpu0.exec_context.thread_0.statExecutedInstType::SimdFloatMultAcc            0      0.00%     84.77% # Class of executed instruction. (Count)
system.cpu0.exec_context.thread_0.statExecutedInstType::SimdFloatSqrt            0      0.00%     84.77% # Class of executed instruction. (Count)
system.cpu0.exec_context.thread_0.statExecutedInstType::SimdReduceAdd            0      0.00%     84.77% # Class of executed instruction. (Count)
system.cpu0.exec_context.thread_0.statExecutedInstType::SimdReduceAlu            0      0.00%     84.77% # Class of executed instruction. (Count)
system.cpu0.exec_context.thread_0.statExecutedInstType::SimdReduceCmp            0      0.00%     84.77% # Class of executed instruction. (Count)
system.cpu0.exec_context.thread_0.statExecutedInstType::SimdFloatReduceAdd            0      0.00%     84.77% # Class of executed instruction. (Count)
system.cpu0.exec_context.thread_0.statExecutedInstType::SimdFloatReduceCmp            0      0.00%     84.77% # Class of executed instruction. (Count)
system.cpu0.exec_context.thread_0.statExecutedInstType::SimdAes            0      0.00%     84.77% # Class of executed instruction. (Count)
system.cpu0.exec_context.thread_0.statExecutedInstType::SimdAesMix            0      0.00%     84.77% # Class of executed instruction. (Count)
system.cpu0.exec_context.thread_0.statExecutedInstType::SimdSha1Hash            0      0.00%     84.77% # Class of executed instruction. (Count)
system.cpu0.exec_context.thread_0.statExecutedInstType::SimdSha1Hash2            0      0.00%     84.77% # Class of executed instruction. (Count)
system.cpu0.exec_context.thread_0.statExecutedInstType::SimdSha256Hash            0      0.00%     84.77% # Class of executed instruction. (Count)
system.cpu0.exec_context.thread_0.statExecutedInstType::SimdSha256Hash2            0      0.00%     84.77% # Class of executed instruction. (Count)
system.cpu0.exec_context.thread_0.statExecutedInstType::SimdShaSigma2            0      0.00%     84.77% # Class of executed instruction. (Count)
system.cpu0.exec_context.thread_0.statExecutedInstType::SimdShaSigma3            0      0.00%     84.77% # Class of executed instruction. (Count)
system.cpu0.exec_context.thread_0.statExecutedInstType::SimdPredAlu            0      0.00%     84.77% # Class of executed instruction. (Count)
system.cpu0.exec_context.thread_0.statExecutedInstType::MemRead     61991461     11.14%     95.92% # Class of executed instruction. (Count)
system.cpu0.exec_context.thread_0.statExecutedInstType::MemWrite     22708100      4.08%    100.00% # Class of executed instruction. (Count)
system.cpu0.exec_context.thread_0.statExecutedInstType::FloatMemRead         3144      0.00%    100.00% # Class of executed instruction. (Count)
system.cpu0.exec_context.thread_0.statExecutedInstType::FloatMemWrite          147      0.00%    100.00% # Class of executed instruction. (Count)
system.cpu0.exec_context.thread_0.statExecutedInstType::IprAccess            0      0.00%    100.00% # Class of executed instruction. (Count)
system.cpu0.exec_context.thread_0.statExecutedInstType::InstPrefetch            0      0.00%    100.00% # Class of executed instruction. (Count)
system.cpu0.exec_context.thread_0.statExecutedInstType::total    556311641                       # Class of executed instruction. (Count)
system.cpu0.interrupts.clk_domain.clock          8000                       # Clock period in ticks (Tick)
system.cpu0.mmu.dtb.rdAccesses               61841543                       # TLB accesses on read requests (Count)
system.cpu0.mmu.dtb.wrAccesses               22689280                       # TLB accesses on write requests (Count)
system.cpu0.mmu.dtb.rdMisses                      713                       # TLB misses on read requests (Count)
system.cpu0.mmu.dtb.wrMisses                      277                       # TLB misses on write requests (Count)
system.cpu0.mmu.dtb.walker.power_state.pwrStateResidencyTicks::UNDEFINED 5050590311000                       # Cumulative time (in ticks) in various power states (Tick)
system.cpu0.mmu.itb.rdAccesses                      0                       # TLB accesses on read requests (Count)
system.cpu0.mmu.itb.wrAccesses              279741133                       # TLB accesses on write requests (Count)
system.cpu0.mmu.itb.rdMisses                        0                       # TLB misses on read requests (Count)
system.cpu0.mmu.itb.wrMisses                      705                       # TLB misses on write requests (Count)
system.cpu0.mmu.itb.walker.power_state.pwrStateResidencyTicks::UNDEFINED 5050590311000                       # Cumulative time (in ticks) in various power states (Tick)
system.cpu0.power_state.numTransitions          24683                       # Number of power state transitions (Count)
system.cpu0.power_state.ticksClkGated::samples        12301                       # Distribution of time spent in the clock gated state
system.cpu0.power_state.ticksClkGated::mean 374927239.022600                       # Distribution of time spent in the clock gated state
system.cpu0.power_state.ticksClkGated::stdev 1131912606.408999                       # Distribution of time spent in the clock gated state
system.cpu0.power_state.ticksClkGated::1000-5e+10        12301    100.00%    100.00% # Distribution of time spent in the clock gated state
system.cpu0.power_state.ticksClkGated::min_value        36501                       # Distribution of time spent in the clock gated state
system.cpu0.power_state.ticksClkGated::max_value   3988558500                       # Distribution of time spent in the clock gated state
system.cpu0.power_state.ticksClkGated::total        12301                       # Distribution of time spent in the clock gated state
system.cpu0.power_state.pwrStateResidencyTicks::ON 438610343783                       # Cumulative time (in ticks) in various power states (Tick)
system.cpu0.power_state.pwrStateResidencyTicks::CLK_GATED 4611979967217                       # Cumulative time (in ticks) in various power states (Tick)
system.cpu0.thread_0.numInsts                       0                       # Number of Instructions committed (Count)
system.cpu0.thread_0.numOps                         0                       # Number of Ops committed (Count)
system.cpu0.thread_0.numMemRefs                     0                       # Number of Memory References (Count)
system.cpu1.numCycles                     10100813632                       # Number of cpu cycles simulated (Cycle)
system.cpu1.numWorkItemsStarted                     0                       # Number of work items this cpu started (Count)
system.cpu1.numWorkItemsCompleted                   0                       # Number of work items this cpu completed (Count)
system.cpu1.exec_context.thread_0.numInsts     16912474                       # Number of instructions committed (Count)
system.cpu1.exec_context.thread_0.numOps     35111317                       # Number of ops (including micro ops) committed (Count)
system.cpu1.exec_context.thread_0.numIntAluAccesses     34177106                       # Number of integer alu accesses (Count)
system.cpu1.exec_context.thread_0.numFpAluAccesses          911                       # Number of float alu accesses (Count)
system.cpu1.exec_context.thread_0.numVecAluAccesses            0                       # Number of vector alu accesses (Count)
system.cpu1.exec_context.thread_0.numCallsReturns       826830                       # Number of times a function call or return occured (Count)
system.cpu1.exec_context.thread_0.numCondCtrlInsts      2592503                       # Number of instructions that are conditional controls (Count)
system.cpu1.exec_context.thread_0.numIntInsts     34177106                       # Number of integer instructions (Count)
system.cpu1.exec_context.thread_0.numFpInsts          911                       # Number of float instructions (Count)
system.cpu1.exec_context.thread_0.numVecInsts            0                       # Number of vector instructions (Count)
system.cpu1.exec_context.thread_0.numIntRegReads     69282676                       # Number of times the integer registers were read (Count)
system.cpu1.exec_context.thread_0.numIntRegWrites     28066241                       # Number of times the integer registers were written (Count)
system.cpu1.exec_context.thread_0.numFpRegReads         1513                       # Number of times the floating registers were read (Count)
system.cpu1.exec_context.thread_0.numFpRegWrites          711                       # Number of times the floating registers were written (Count)
system.cpu1.exec_context.thread_0.numVecRegReads            0                       # Number of times the vector registers were read (Count)
system.cpu1.exec_context.thread_0.numVecRegWrites            0                       # Number of times the vector registers were written (Count)
system.cpu1.exec_context.thread_0.numVecPredRegReads            0                       # Number of times the predicate registers were read (Count)
system.cpu1.exec_context.thread_0.numVecPredRegWrites            0                       # Number of times the predicate registers were written (Count)
system.cpu1.exec_context.thread_0.numCCRegReads     20799817                       # Number of times the CC registers were read (Count)
system.cpu1.exec_context.thread_0.numCCRegWrites     11309590                       # Number of times the CC registers were written (Count)
system.cpu1.exec_context.thread_0.numMemRefs      8170826                       # Number of memory refs (Count)
system.cpu1.exec_context.thread_0.numLoadInsts      5126967                       # Number of load instructions (Count)
system.cpu1.exec_context.thread_0.numStoreInsts      3043859                       # Number of store instructions (Count)
system.cpu1.exec_context.thread_0.numIdleCycles 10021504572.513605                       # Number of idle cycles (Cycle)
system.cpu1.exec_context.thread_0.numBusyCycles 79309059.486395                       # Number of busy cycles (Cycle)
system.cpu1.exec_context.thread_0.notIdleFraction     0.007852                       # Percentage of non-idle cycles (Ratio)
system.cpu1.exec_context.thread_0.idleFraction     0.992148                       # Percentage of idle cycles (Ratio)
system.cpu1.exec_context.thread_0.numBranches      3747668                       # Number of branches fetched (Count)
system.cpu1.exec_context.thread_0.statExecutedInstType::No_OpClass       644982      1.84%      1.84% # Class of executed instruction. (Count)
system.cpu1.exec_context.thread_0.statExecutedInstType::IntAlu     26212184     74.65%     76.49% # Class of executed instruction. (Count)
system.cpu1.exec_context.thread_0.statExecutedInstType::IntMult        74389      0.21%     76.70% # Class of executed instruction. (Count)
system.cpu1.exec_context.thread_0.statExecutedInstType::IntDiv        14994      0.04%     76.75% # Class of executed instruction. (Count)
system.cpu1.exec_context.thread_0.statExecutedInstType::FloatAdd           13      0.00%     76.75% # Class of executed instruction. (Count)
system.cpu1.exec_context.thread_0.statExecutedInstType::FloatCmp            0      0.00%     76.75% # Class of executed instruction. (Count)
system.cpu1.exec_context.thread_0.statExecutedInstType::FloatCvt           16      0.00%     76.75% # Class of executed instruction. (Count)
system.cpu1.exec_context.thread_0.statExecutedInstType::FloatMult            0      0.00%     76.75% # Class of executed instruction. (Count)
system.cpu1.exec_context.thread_0.statExecutedInstType::FloatMultAcc            0      0.00%     76.75% # Class of executed instruction. (Count)
system.cpu1.exec_context.thread_0.statExecutedInstType::FloatDiv            0      0.00%     76.75% # Class of executed instruction. (Count)
system.cpu1.exec_context.thread_0.statExecutedInstType::FloatMisc            0      0.00%     76.75% # Class of executed instruction. (Count)
system.cpu1.exec_context.thread_0.statExecutedInstType::FloatSqrt            0      0.00%     76.75% # Class of executed instruction. (Count)
system.cpu1.exec_context.thread_0.statExecutedInstType::SimdAdd           50      0.00%     76.75% # Class of executed instruction. (Count)
system.cpu1.exec_context.thread_0.statExecutedInstType::SimdAddAcc            0      0.00%     76.75% # Class of executed instruction. (Count)
system.cpu1.exec_context.thread_0.statExecutedInstType::SimdAlu          114      0.00%     76.75% # Class of executed instruction. (Count)
system.cpu1.exec_context.thread_0.statExecutedInstType::SimdCmp            0      0.00%     76.75% # Class of executed instruction. (Count)
system.cpu1.exec_context.thread_0.statExecutedInstType::SimdCvt          196      0.00%     76.75% # Class of executed instruction. (Count)
system.cpu1.exec_context.thread_0.statExecutedInstType::SimdMisc          237      0.00%     76.75% # Class of executed instruction. (Count)
system.cpu1.exec_context.thread_0.statExecutedInstType::SimdMult            0      0.00%     76.75% # Class of executed instruction. (Count)
system.cpu1.exec_context.thread_0.statExecutedInstType::SimdMultAcc            0      0.00%     76.75% # Class of executed instruction. (Count)
system.cpu1.exec_context.thread_0.statExecutedInstType::SimdShift            0      0.00%     76.75% # Class of executed instruction. (Count)
system.cpu1.exec_context.thread_0.statExecutedInstType::SimdShiftAcc            0      0.00%     76.75% # Class of executed instruction. (Count)
system.cpu1.exec_context.thread_0.statExecutedInstType::SimdDiv            0      0.00%     76.75% # Class of executed instruction. (Count)
system.cpu1.exec_context.thread_0.statExecutedInstType::SimdSqrt            0      0.00%     76.75% # Class of executed instruction. (Count)
system.cpu1.exec_context.thread_0.statExecutedInstType::SimdFloatAdd            0      0.00%     76.75% # Class of executed instruction. (Count)
system.cpu1.exec_context.thread_0.statExecutedInstType::SimdFloatAlu            0      0.00%     76.75% # Class of executed instruction. (Count)
system.cpu1.exec_context.thread_0.statExecutedInstType::SimdFloatCmp            0      0.00%     76.75% # Class of executed instruction. (Count)
system.cpu1.exec_context.thread_0.statExecutedInstType::SimdFloatCvt            0      0.00%     76.75% # Class of executed instruction. (Count)
system.cpu1.exec_context.thread_0.statExecutedInstType::SimdFloatDiv            0      0.00%     76.75% # Class of executed instruction. (Count)
system.cpu1.exec_context.thread_0.statExecutedInstType::SimdFloatMisc            0      0.00%     76.75% # Class of executed instruction. (Count)
system.cpu1.exec_context.thread_0.statExecutedInstType::SimdFloatMult            0      0.00%     76.75% # Class of executed instruction. (Count)
system.cpu1.exec_context.thread_0.statExecutedInstType::SimdFloatMultAcc            0      0.00%     76.75% # Class of executed instruction. (Count)
system.cpu1.exec_context.thread_0.statExecutedInstType::SimdFloatSqrt            0      0.00%     76.75% # Class of executed instruction. (Count)
system.cpu1.exec_context.thread_0.statExecutedInstType::SimdReduceAdd            0      0.00%     76.75% # Class of executed instruction. (Count)
system.cpu1.exec_context.thread_0.statExecutedInstType::SimdReduceAlu            0      0.00%     76.75% # Class of executed instruction. (Count)
system.cpu1.exec_context.thread_0.statExecutedInstType::SimdReduceCmp            0      0.00%     76.75% # Class of executed instruction. (Count)
system.cpu1.exec_context.thread_0.statExecutedInstType::SimdFloatReduceAdd            0      0.00%     76.75% # Class of executed instruction. (Count)
system.cpu1.exec_context.thread_0.statExecutedInstType::SimdFloatReduceCmp            0      0.00%     76.75% # Class of executed instruction. (Count)
system.cpu1.exec_context.thread_0.statExecutedInstType::SimdAes            0      0.00%     76.75% # Class of executed instruction. (Count)
system.cpu1.exec_context.thread_0.statExecutedInstType::SimdAesMix            0      0.00%     76.75% # Class of executed instruction. (Count)
system.cpu1.exec_context.thread_0.statExecutedInstType::SimdSha1Hash            0      0.00%     76.75% # Class of executed instruction. (Count)
system.cpu1.exec_context.thread_0.statExecutedInstType::SimdSha1Hash2            0      0.00%     76.75% # Class of executed instruction. (Count)
system.cpu1.exec_context.thread_0.statExecutedInstType::SimdSha256Hash            0      0.00%     76.75% # Class of executed instruction. (Count)
system.cpu1.exec_context.thread_0.statExecutedInstType::SimdSha256Hash2            0      0.00%     76.75% # Class of executed instruction. (Count)
system.cpu1.exec_context.thread_0.statExecutedInstType::SimdShaSigma2            0      0.00%     76.75% # Class of executed instruction. (Count)
system.cpu1.exec_context.thread_0.statExecutedInstType::SimdShaSigma3            0      0.00%     76.75% # Class of executed instruction. (Count)
system.cpu1.exec_context.thread_0.statExecutedInstType::SimdPredAlu            0      0.00%     76.75% # Class of executed instruction. (Count)
system.cpu1.exec_context.thread_0.statExecutedInstType::MemRead      5120173     14.58%     91.33% # Class of executed instruction. (Count)
system.cpu1.exec_context.thread_0.statExecutedInstType::MemWrite      3043827      8.67%    100.00% # Class of executed instruction. (Count)
system.cpu1.exec_context.thread_0.statExecutedInstType::FloatMemRead          174      0.00%    100.00% # Class of executed instruction. (Count)
system.cpu1.exec_context.thread_0.statExecutedInstType::FloatMemWrite           32      0.00%    100.00% # Class of executed instruction. (Count)
system.cpu1.exec_context.thread_0.statExecutedInstType::IprAccess            0      0.00%    100.00% # Class of executed instruction. (Count)
system.cpu1.exec_context.thread_0.statExecutedInstType::InstPrefetch            0      0.00%    100.00% # Class of executed instruction. (Count)
system.cpu1.exec_context.thread_0.statExecutedInstType::total     35111381                       # Class of executed instruction. (Count)
system.cpu1.interrupts.clk_domain.clock          8000                       # Clock period in ticks (Tick)
system.cpu1.mmu.dtb.rdAccesses                5134759                       # TLB accesses on read requests (Count)
system.cpu1.mmu.dtb.wrAccesses                3051494                       # TLB accesses on write requests (Count)
system.cpu1.mmu.dtb.rdMisses                      116                       # TLB misses on read requests (Count)
system.cpu1.mmu.dtb.wrMisses                       71                       # TLB misses on write requests (Count)
system.cpu1.mmu.dtb.walker.power_state.pwrStateResidencyTicks::UNDEFINED 5050590311000                       # Cumulative time (in ticks) in various power states (Tick)
system.cpu1.mmu.itb.rdAccesses                      0                       # TLB accesses on read requests (Count)
system.cpu1.mmu.itb.wrAccesses               22653848                       # TLB accesses on write requests (Count)
system.cpu1.mmu.itb.rdMisses                        0                       # TLB misses on read requests (Count)
system.cpu1.mmu.itb.wrMisses                      250                       # TLB misses on write requests (Count)
system.cpu1.mmu.itb.walker.power_state.pwrStateResidencyTicks::UNDEFINED 5050590311000                       # Cumulative time (in ticks) in various power states (Tick)
system.cpu1.power_state.numTransitions           6702                       # Number of power state transitions (Count)
system.cpu1.power_state.ticksClkGated::samples         3344                       # Distribution of time spent in the clock gated state
system.cpu1.power_state.ticksClkGated::mean 1396040653.409091                       # Distribution of time spent in the clock gated state
system.cpu1.power_state.ticksClkGated::stdev 1870317971.734748                       # Distribution of time spent in the clock gated state
system.cpu1.power_state.ticksClkGated::1000-5e+10         3344    100.00%    100.00% # Distribution of time spent in the clock gated state
system.cpu1.power_state.ticksClkGated::min_value       185000                       # Distribution of time spent in the clock gated state
system.cpu1.power_state.ticksClkGated::max_value  10001498000                       # Distribution of time spent in the clock gated state
system.cpu1.power_state.ticksClkGated::total         3344                       # Distribution of time spent in the clock gated state
system.cpu1.power_state.pwrStateResidencyTicks::ON 382230366000                       # Cumulative time (in ticks) in various power states (Tick)
system.cpu1.power_state.pwrStateResidencyTicks::CLK_GATED 4668359945000                       # Cumulative time (in ticks) in various power states (Tick)
system.cpu1.thread_0.numInsts                       0                       # Number of Instructions committed (Count)
system.cpu1.thread_0.numOps                         0                       # Number of Ops committed (Count)
system.cpu1.thread_0.numMemRefs                     0                       # Number of Memory References (Count)
system.cpu10.numCycles                    10093504252                       # Number of cpu cycles simulated (Cycle)
system.cpu10.numWorkItemsStarted                    0                       # Number of work items this cpu started (Count)
system.cpu10.numWorkItemsCompleted                  0                       # Number of work items this cpu completed (Count)
system.cpu10.exec_context.thread_0.numInsts      6233198                       # Number of instructions committed (Count)
system.cpu10.exec_context.thread_0.numOps     12255398                       # Number of ops (including micro ops) committed (Count)
system.cpu10.exec_context.thread_0.numIntAluAccesses     12072069                       # Number of integer alu accesses (Count)
system.cpu10.exec_context.thread_0.numFpAluAccesses           48                       # Number of float alu accesses (Count)
system.cpu10.exec_context.thread_0.numVecAluAccesses            0                       # Number of vector alu accesses (Count)
system.cpu10.exec_context.thread_0.numCallsReturns       285315                       # Number of times a function call or return occured (Count)
system.cpu10.exec_context.thread_0.numCondCtrlInsts       865944                       # Number of instructions that are conditional controls (Count)
system.cpu10.exec_context.thread_0.numIntInsts     12072069                       # Number of integer instructions (Count)
system.cpu10.exec_context.thread_0.numFpInsts           48                       # Number of float instructions (Count)
system.cpu10.exec_context.thread_0.numVecInsts            0                       # Number of vector instructions (Count)
system.cpu10.exec_context.thread_0.numIntRegReads     23454109                       # Number of times the integer registers were read (Count)
system.cpu10.exec_context.thread_0.numIntRegWrites     10081459                       # Number of times the integer registers were written (Count)
system.cpu10.exec_context.thread_0.numFpRegReads           48                       # Number of times the floating registers were read (Count)
system.cpu10.exec_context.thread_0.numFpRegWrites            0                       # Number of times the floating registers were written (Count)
system.cpu10.exec_context.thread_0.numVecRegReads            0                       # Number of times the vector registers were read (Count)
system.cpu10.exec_context.thread_0.numVecRegWrites            0                       # Number of times the vector registers were written (Count)
system.cpu10.exec_context.thread_0.numVecPredRegReads            0                       # Number of times the predicate registers were read (Count)
system.cpu10.exec_context.thread_0.numVecPredRegWrites            0                       # Number of times the predicate registers were written (Count)
system.cpu10.exec_context.thread_0.numCCRegReads      8056175                       # Number of times the CC registers were read (Count)
system.cpu10.exec_context.thread_0.numCCRegWrites      4334484                       # Number of times the CC registers were written (Count)
system.cpu10.exec_context.thread_0.numMemRefs      2497361                       # Number of memory refs (Count)
system.cpu10.exec_context.thread_0.numLoadInsts      1719556                       # Number of load instructions (Count)
system.cpu10.exec_context.thread_0.numStoreInsts       777805                       # Number of store instructions (Count)
system.cpu10.exec_context.thread_0.numIdleCycles 10067678975.787842                       # Number of idle cycles (Cycle)
system.cpu10.exec_context.thread_0.numBusyCycles 25825276.212157                       # Number of busy cycles (Cycle)
system.cpu10.exec_context.thread_0.notIdleFraction     0.002559                       # Percentage of non-idle cycles (Ratio)
system.cpu10.exec_context.thread_0.idleFraction     0.997441                       # Percentage of idle cycles (Ratio)
system.cpu10.exec_context.thread_0.numBranches      1279375                       # Number of branches fetched (Count)
system.cpu10.exec_context.thread_0.statExecutedInstType::No_OpClass        63412      0.52%      0.52% # Class of executed instruction. (Count)
system.cpu10.exec_context.thread_0.statExecutedInstType::IntAlu      9666932     78.88%     79.40% # Class of executed instruction. (Count)
system.cpu10.exec_context.thread_0.statExecutedInstType::IntMult        29749      0.24%     79.64% # Class of executed instruction. (Count)
system.cpu10.exec_context.thread_0.statExecutedInstType::IntDiv          422      0.00%     79.64% # Class of executed instruction. (Count)
system.cpu10.exec_context.thread_0.statExecutedInstType::FloatAdd            0      0.00%     79.64% # Class of executed instruction. (Count)
system.cpu10.exec_context.thread_0.statExecutedInstType::FloatCmp            0      0.00%     79.64% # Class of executed instruction. (Count)
system.cpu10.exec_context.thread_0.statExecutedInstType::FloatCvt           16      0.00%     79.64% # Class of executed instruction. (Count)
system.cpu10.exec_context.thread_0.statExecutedInstType::FloatMult            0      0.00%     79.64% # Class of executed instruction. (Count)
system.cpu10.exec_context.thread_0.statExecutedInstType::FloatMultAcc            0      0.00%     79.64% # Class of executed instruction. (Count)
system.cpu10.exec_context.thread_0.statExecutedInstType::FloatDiv            0      0.00%     79.64% # Class of executed instruction. (Count)
system.cpu10.exec_context.thread_0.statExecutedInstType::FloatMisc            0      0.00%     79.64% # Class of executed instruction. (Count)
system.cpu10.exec_context.thread_0.statExecutedInstType::FloatSqrt            0      0.00%     79.64% # Class of executed instruction. (Count)
system.cpu10.exec_context.thread_0.statExecutedInstType::SimdAdd            0      0.00%     79.64% # Class of executed instruction. (Count)
system.cpu10.exec_context.thread_0.statExecutedInstType::SimdAddAcc            0      0.00%     79.64% # Class of executed instruction. (Count)
system.cpu10.exec_context.thread_0.statExecutedInstType::SimdAlu            0      0.00%     79.64% # Class of executed instruction. (Count)
system.cpu10.exec_context.thread_0.statExecutedInstType::SimdCmp            0      0.00%     79.64% # Class of executed instruction. (Count)
system.cpu10.exec_context.thread_0.statExecutedInstType::SimdCvt            0      0.00%     79.64% # Class of executed instruction. (Count)
system.cpu10.exec_context.thread_0.statExecutedInstType::SimdMisc            0      0.00%     79.64% # Class of executed instruction. (Count)
system.cpu10.exec_context.thread_0.statExecutedInstType::SimdMult            0      0.00%     79.64% # Class of executed instruction. (Count)
system.cpu10.exec_context.thread_0.statExecutedInstType::SimdMultAcc            0      0.00%     79.64% # Class of executed instruction. (Count)
system.cpu10.exec_context.thread_0.statExecutedInstType::SimdShift            0      0.00%     79.64% # Class of executed instruction. (Count)
system.cpu10.exec_context.thread_0.statExecutedInstType::SimdShiftAcc            0      0.00%     79.64% # Class of executed instruction. (Count)
system.cpu10.exec_context.thread_0.statExecutedInstType::SimdDiv            0      0.00%     79.64% # Class of executed instruction. (Count)
system.cpu10.exec_context.thread_0.statExecutedInstType::SimdSqrt            0      0.00%     79.64% # Class of executed instruction. (Count)
system.cpu10.exec_context.thread_0.statExecutedInstType::SimdFloatAdd            0      0.00%     79.64% # Class of executed instruction. (Count)
system.cpu10.exec_context.thread_0.statExecutedInstType::SimdFloatAlu            0      0.00%     79.64% # Class of executed instruction. (Count)
system.cpu10.exec_context.thread_0.statExecutedInstType::SimdFloatCmp            0      0.00%     79.64% # Class of executed instruction. (Count)
system.cpu10.exec_context.thread_0.statExecutedInstType::SimdFloatCvt            0      0.00%     79.64% # Class of executed instruction. (Count)
system.cpu10.exec_context.thread_0.statExecutedInstType::SimdFloatDiv            0      0.00%     79.64% # Class of executed instruction. (Count)
system.cpu10.exec_context.thread_0.statExecutedInstType::SimdFloatMisc            0      0.00%     79.64% # Class of executed instruction. (Count)
system.cpu10.exec_context.thread_0.statExecutedInstType::SimdFloatMult            0      0.00%     79.64% # Class of executed instruction. (Count)
system.cpu10.exec_context.thread_0.statExecutedInstType::SimdFloatMultAcc            0      0.00%     79.64% # Class of executed instruction. (Count)
system.cpu10.exec_context.thread_0.statExecutedInstType::SimdFloatSqrt            0      0.00%     79.64% # Class of executed instruction. (Count)
system.cpu10.exec_context.thread_0.statExecutedInstType::SimdReduceAdd            0      0.00%     79.64% # Class of executed instruction. (Count)
system.cpu10.exec_context.thread_0.statExecutedInstType::SimdReduceAlu            0      0.00%     79.64% # Class of executed instruction. (Count)
system.cpu10.exec_context.thread_0.statExecutedInstType::SimdReduceCmp            0      0.00%     79.64% # Class of executed instruction. (Count)
system.cpu10.exec_context.thread_0.statExecutedInstType::SimdFloatReduceAdd            0      0.00%     79.64% # Class of executed instruction. (Count)
system.cpu10.exec_context.thread_0.statExecutedInstType::SimdFloatReduceCmp            0      0.00%     79.64% # Class of executed instruction. (Count)
system.cpu10.exec_context.thread_0.statExecutedInstType::SimdAes            0      0.00%     79.64% # Class of executed instruction. (Count)
system.cpu10.exec_context.thread_0.statExecutedInstType::SimdAesMix            0      0.00%     79.64% # Class of executed instruction. (Count)
system.cpu10.exec_context.thread_0.statExecutedInstType::SimdSha1Hash            0      0.00%     79.64% # Class of executed instruction. (Count)
system.cpu10.exec_context.thread_0.statExecutedInstType::SimdSha1Hash2            0      0.00%     79.64% # Class of executed instruction. (Count)
system.cpu10.exec_context.thread_0.statExecutedInstType::SimdSha256Hash            0      0.00%     79.64% # Class of executed instruction. (Count)
system.cpu10.exec_context.thread_0.statExecutedInstType::SimdSha256Hash2            0      0.00%     79.64% # Class of executed instruction. (Count)
system.cpu10.exec_context.thread_0.statExecutedInstType::SimdShaSigma2            0      0.00%     79.64% # Class of executed instruction. (Count)
system.cpu10.exec_context.thread_0.statExecutedInstType::SimdShaSigma3            0      0.00%     79.64% # Class of executed instruction. (Count)
system.cpu10.exec_context.thread_0.statExecutedInstType::SimdPredAlu            0      0.00%     79.64% # Class of executed instruction. (Count)
system.cpu10.exec_context.thread_0.statExecutedInstType::MemRead      1717062     14.01%     93.65% # Class of executed instruction. (Count)
system.cpu10.exec_context.thread_0.statExecutedInstType::MemWrite       777773      6.35%    100.00% # Class of executed instruction. (Count)
system.cpu10.exec_context.thread_0.statExecutedInstType::FloatMemRead            0      0.00%    100.00% # Class of executed instruction. (Count)
system.cpu10.exec_context.thread_0.statExecutedInstType::FloatMemWrite           32      0.00%    100.00% # Class of executed instruction. (Count)
system.cpu10.exec_context.thread_0.statExecutedInstType::IprAccess            0      0.00%    100.00% # Class of executed instruction. (Count)
system.cpu10.exec_context.thread_0.statExecutedInstType::InstPrefetch            0      0.00%    100.00% # Class of executed instruction. (Count)
system.cpu10.exec_context.thread_0.statExecutedInstType::total     12255398                       # Class of executed instruction. (Count)
system.cpu10.interrupts.clk_domain.clock         8000                       # Clock period in ticks (Tick)
system.cpu10.mmu.dtb.rdAccesses               1723164                       # TLB accesses on read requests (Count)
system.cpu10.mmu.dtb.wrAccesses                781409                       # TLB accesses on write requests (Count)
system.cpu10.mmu.dtb.rdMisses                      20                       # TLB misses on read requests (Count)
system.cpu10.mmu.dtb.wrMisses                       3                       # TLB misses on write requests (Count)
system.cpu10.mmu.dtb.walker.power_state.pwrStateResidencyTicks::UNDEFINED 5050590311000                       # Cumulative time (in ticks) in various power states (Tick)
system.cpu10.mmu.itb.rdAccesses                     0                       # TLB accesses on read requests (Count)
system.cpu10.mmu.itb.wrAccesses               8524772                       # TLB accesses on write requests (Count)
system.cpu10.mmu.itb.rdMisses                       0                       # TLB misses on read requests (Count)
system.cpu10.mmu.itb.wrMisses                       8                       # TLB misses on write requests (Count)
system.cpu10.mmu.itb.walker.power_state.pwrStateResidencyTicks::UNDEFINED 5050590311000                       # Cumulative time (in ticks) in various power states (Tick)
system.cpu10.power_state.numTransitions          2496                       # Number of power state transitions (Count)
system.cpu10.power_state.ticksClkGated::samples         1249                       # Distribution of time spent in the clock gated state
system.cpu10.power_state.ticksClkGated::mean 3674335317.854283                       # Distribution of time spent in the clock gated state
system.cpu10.power_state.ticksClkGated::stdev 1062173908.466144                       # Distribution of time spent in the clock gated state
system.cpu10.power_state.ticksClkGated::1000-5e+10         1249    100.00%    100.00% # Distribution of time spent in the clock gated state
system.cpu10.power_state.ticksClkGated::min_value       424500                       # Distribution of time spent in the clock gated state
system.cpu10.power_state.ticksClkGated::max_value  10001330000                       # Distribution of time spent in the clock gated state
system.cpu10.power_state.ticksClkGated::total         1249                       # Distribution of time spent in the clock gated state
system.cpu10.power_state.pwrStateResidencyTicks::ON 461345499000                       # Cumulative time (in ticks) in various power states (Tick)
system.cpu10.power_state.pwrStateResidencyTicks::CLK_GATED 4589244812000                       # Cumulative time (in ticks) in various power states (Tick)
system.cpu10.thread_0.numInsts                      0                       # Number of Instructions committed (Count)
system.cpu10.thread_0.numOps                        0                       # Number of Ops committed (Count)
system.cpu10.thread_0.numMemRefs                    0                       # Number of Memory References (Count)
system.cpu11.numCycles                    10101015423                       # Number of cpu cycles simulated (Cycle)
system.cpu11.numWorkItemsStarted                    0                       # Number of work items this cpu started (Count)
system.cpu11.numWorkItemsCompleted                  0                       # Number of work items this cpu completed (Count)
system.cpu11.exec_context.thread_0.numInsts      6233898                       # Number of instructions committed (Count)
system.cpu11.exec_context.thread_0.numOps     12256148                       # Number of ops (including micro ops) committed (Count)
system.cpu11.exec_context.thread_0.numIntAluAccesses     12072906                       # Number of integer alu accesses (Count)
system.cpu11.exec_context.thread_0.numFpAluAccesses           48                       # Number of float alu accesses (Count)
system.cpu11.exec_context.thread_0.numVecAluAccesses            0                       # Number of vector alu accesses (Count)
system.cpu11.exec_context.thread_0.numCallsReturns       285299                       # Number of times a function call or return occured (Count)
system.cpu11.exec_context.thread_0.numCondCtrlInsts       866058                       # Number of instructions that are conditional controls (Count)
system.cpu11.exec_context.thread_0.numIntInsts     12072906                       # Number of integer instructions (Count)
system.cpu11.exec_context.thread_0.numFpInsts           48                       # Number of float instructions (Count)
system.cpu11.exec_context.thread_0.numVecInsts            0                       # Number of vector instructions (Count)
system.cpu11.exec_context.thread_0.numIntRegReads     23455875                       # Number of times the integer registers were read (Count)
system.cpu11.exec_context.thread_0.numIntRegWrites     10082231                       # Number of times the integer registers were written (Count)
system.cpu11.exec_context.thread_0.numFpRegReads           48                       # Number of times the floating registers were read (Count)
system.cpu11.exec_context.thread_0.numFpRegWrites            0                       # Number of times the floating registers were written (Count)
system.cpu11.exec_context.thread_0.numVecRegReads            0                       # Number of times the vector registers were read (Count)
system.cpu11.exec_context.thread_0.numVecRegWrites            0                       # Number of times the vector registers were written (Count)
system.cpu11.exec_context.thread_0.numVecPredRegReads            0                       # Number of times the predicate registers were read (Count)
system.cpu11.exec_context.thread_0.numVecPredRegWrites            0                       # Number of times the predicate registers were written (Count)
system.cpu11.exec_context.thread_0.numCCRegReads      8058127                       # Number of times the CC registers were read (Count)
system.cpu11.exec_context.thread_0.numCCRegWrites      4335066                       # Number of times the CC registers were written (Count)
system.cpu11.exec_context.thread_0.numMemRefs      2497270                       # Number of memory refs (Count)
system.cpu11.exec_context.thread_0.numLoadInsts      1719496                       # Number of load instructions (Count)
system.cpu11.exec_context.thread_0.numStoreInsts       777774                       # Number of store instructions (Count)
system.cpu11.exec_context.thread_0.numIdleCycles 10075153348.966270                       # Number of idle cycles (Cycle)
system.cpu11.exec_context.thread_0.numBusyCycles 25862074.033730                       # Number of busy cycles (Cycle)
system.cpu11.exec_context.thread_0.notIdleFraction     0.002560                       # Percentage of non-idle cycles (Ratio)
system.cpu11.exec_context.thread_0.idleFraction     0.997440                       # Percentage of idle cycles (Ratio)
system.cpu11.exec_context.thread_0.numBranches      1279488                       # Number of branches fetched (Count)
system.cpu11.exec_context.thread_0.statExecutedInstType::No_OpClass        63417      0.52%      0.52% # Class of executed instruction. (Count)
system.cpu11.exec_context.thread_0.statExecutedInstType::IntAlu      9667754     78.88%     79.40% # Class of executed instruction. (Count)
system.cpu11.exec_context.thread_0.statExecutedInstType::IntMult        29747      0.24%     79.64% # Class of executed instruction. (Count)
system.cpu11.exec_context.thread_0.statExecutedInstType::IntDiv          436      0.00%     79.64% # Class of executed instruction. (Count)
system.cpu11.exec_context.thread_0.statExecutedInstType::FloatAdd            0      0.00%     79.64% # Class of executed instruction. (Count)
system.cpu11.exec_context.thread_0.statExecutedInstType::FloatCmp            0      0.00%     79.64% # Class of executed instruction. (Count)
system.cpu11.exec_context.thread_0.statExecutedInstType::FloatCvt           16      0.00%     79.64% # Class of executed instruction. (Count)
system.cpu11.exec_context.thread_0.statExecutedInstType::FloatMult            0      0.00%     79.64% # Class of executed instruction. (Count)
system.cpu11.exec_context.thread_0.statExecutedInstType::FloatMultAcc            0      0.00%     79.64% # Class of executed instruction. (Count)
system.cpu11.exec_context.thread_0.statExecutedInstType::FloatDiv            0      0.00%     79.64% # Class of executed instruction. (Count)
system.cpu11.exec_context.thread_0.statExecutedInstType::FloatMisc            0      0.00%     79.64% # Class of executed instruction. (Count)
system.cpu11.exec_context.thread_0.statExecutedInstType::FloatSqrt            0      0.00%     79.64% # Class of executed instruction. (Count)
system.cpu11.exec_context.thread_0.statExecutedInstType::SimdAdd            0      0.00%     79.64% # Class of executed instruction. (Count)
system.cpu11.exec_context.thread_0.statExecutedInstType::SimdAddAcc            0      0.00%     79.64% # Class of executed instruction. (Count)
system.cpu11.exec_context.thread_0.statExecutedInstType::SimdAlu            0      0.00%     79.64% # Class of executed instruction. (Count)
system.cpu11.exec_context.thread_0.statExecutedInstType::SimdCmp            0      0.00%     79.64% # Class of executed instruction. (Count)
system.cpu11.exec_context.thread_0.statExecutedInstType::SimdCvt            0      0.00%     79.64% # Class of executed instruction. (Count)
system.cpu11.exec_context.thread_0.statExecutedInstType::SimdMisc            0      0.00%     79.64% # Class of executed instruction. (Count)
system.cpu11.exec_context.thread_0.statExecutedInstType::SimdMult            0      0.00%     79.64% # Class of executed instruction. (Count)
system.cpu11.exec_context.thread_0.statExecutedInstType::SimdMultAcc            0      0.00%     79.64% # Class of executed instruction. (Count)
system.cpu11.exec_context.thread_0.statExecutedInstType::SimdShift            0      0.00%     79.64% # Class of executed instruction. (Count)
system.cpu11.exec_context.thread_0.statExecutedInstType::SimdShiftAcc            0      0.00%     79.64% # Class of executed instruction. (Count)
system.cpu11.exec_context.thread_0.statExecutedInstType::SimdDiv            0      0.00%     79.64% # Class of executed instruction. (Count)
system.cpu11.exec_context.thread_0.statExecutedInstType::SimdSqrt            0      0.00%     79.64% # Class of executed instruction. (Count)
system.cpu11.exec_context.thread_0.statExecutedInstType::SimdFloatAdd            0      0.00%     79.64% # Class of executed instruction. (Count)
system.cpu11.exec_context.thread_0.statExecutedInstType::SimdFloatAlu            0      0.00%     79.64% # Class of executed instruction. (Count)
system.cpu11.exec_context.thread_0.statExecutedInstType::SimdFloatCmp            0      0.00%     79.64% # Class of executed instruction. (Count)
system.cpu11.exec_context.thread_0.statExecutedInstType::SimdFloatCvt            0      0.00%     79.64% # Class of executed instruction. (Count)
system.cpu11.exec_context.thread_0.statExecutedInstType::SimdFloatDiv            0      0.00%     79.64% # Class of executed instruction. (Count)
system.cpu11.exec_context.thread_0.statExecutedInstType::SimdFloatMisc            0      0.00%     79.64% # Class of executed instruction. (Count)
system.cpu11.exec_context.thread_0.statExecutedInstType::SimdFloatMult            0      0.00%     79.64% # Class of executed instruction. (Count)
system.cpu11.exec_context.thread_0.statExecutedInstType::SimdFloatMultAcc            0      0.00%     79.64% # Class of executed instruction. (Count)
system.cpu11.exec_context.thread_0.statExecutedInstType::SimdFloatSqrt            0      0.00%     79.64% # Class of executed instruction. (Count)
system.cpu11.exec_context.thread_0.statExecutedInstType::SimdReduceAdd            0      0.00%     79.64% # Class of executed instruction. (Count)
system.cpu11.exec_context.thread_0.statExecutedInstType::SimdReduceAlu            0      0.00%     79.64% # Class of executed instruction. (Count)
system.cpu11.exec_context.thread_0.statExecutedInstType::SimdReduceCmp            0      0.00%     79.64% # Class of executed instruction. (Count)
system.cpu11.exec_context.thread_0.statExecutedInstType::SimdFloatReduceAdd            0      0.00%     79.64% # Class of executed instruction. (Count)
system.cpu11.exec_context.thread_0.statExecutedInstType::SimdFloatReduceCmp            0      0.00%     79.64% # Class of executed instruction. (Count)
system.cpu11.exec_context.thread_0.statExecutedInstType::SimdAes            0      0.00%     79.64% # Class of executed instruction. (Count)
system.cpu11.exec_context.thread_0.statExecutedInstType::SimdAesMix            0      0.00%     79.64% # Class of executed instruction. (Count)
system.cpu11.exec_context.thread_0.statExecutedInstType::SimdSha1Hash            0      0.00%     79.64% # Class of executed instruction. (Count)
system.cpu11.exec_context.thread_0.statExecutedInstType::SimdSha1Hash2            0      0.00%     79.64% # Class of executed instruction. (Count)
system.cpu11.exec_context.thread_0.statExecutedInstType::SimdSha256Hash            0      0.00%     79.64% # Class of executed instruction. (Count)
system.cpu11.exec_context.thread_0.statExecutedInstType::SimdSha256Hash2            0      0.00%     79.64% # Class of executed instruction. (Count)
system.cpu11.exec_context.thread_0.statExecutedInstType::SimdShaSigma2            0      0.00%     79.64% # Class of executed instruction. (Count)
system.cpu11.exec_context.thread_0.statExecutedInstType::SimdShaSigma3            0      0.00%     79.64% # Class of executed instruction. (Count)
system.cpu11.exec_context.thread_0.statExecutedInstType::SimdPredAlu            0      0.00%     79.64% # Class of executed instruction. (Count)
system.cpu11.exec_context.thread_0.statExecutedInstType::MemRead      1717004     14.01%     93.65% # Class of executed instruction. (Count)
system.cpu11.exec_context.thread_0.statExecutedInstType::MemWrite       777742      6.35%    100.00% # Class of executed instruction. (Count)
system.cpu11.exec_context.thread_0.statExecutedInstType::FloatMemRead            0      0.00%    100.00% # Class of executed instruction. (Count)
system.cpu11.exec_context.thread_0.statExecutedInstType::FloatMemWrite           32      0.00%    100.00% # Class of executed instruction. (Count)
system.cpu11.exec_context.thread_0.statExecutedInstType::IprAccess            0      0.00%    100.00% # Class of executed instruction. (Count)
system.cpu11.exec_context.thread_0.statExecutedInstType::InstPrefetch            0      0.00%    100.00% # Class of executed instruction. (Count)
system.cpu11.exec_context.thread_0.statExecutedInstType::total     12256148                       # Class of executed instruction. (Count)
system.cpu11.interrupts.clk_domain.clock         8000                       # Clock period in ticks (Tick)
system.cpu11.mmu.dtb.rdAccesses               1723100                       # TLB accesses on read requests (Count)
system.cpu11.mmu.dtb.wrAccesses                781374                       # TLB accesses on write requests (Count)
system.cpu11.mmu.dtb.rdMisses                      20                       # TLB misses on read requests (Count)
system.cpu11.mmu.dtb.wrMisses                       3                       # TLB misses on write requests (Count)
system.cpu11.mmu.dtb.walker.power_state.pwrStateResidencyTicks::UNDEFINED 5050590311000                       # Cumulative time (in ticks) in various power states (Tick)
system.cpu11.mmu.itb.rdAccesses                     0                       # TLB accesses on read requests (Count)
system.cpu11.mmu.itb.wrAccesses               8525830                       # TLB accesses on write requests (Count)
system.cpu11.mmu.itb.rdMisses                       0                       # TLB misses on read requests (Count)
system.cpu11.mmu.itb.wrMisses                       8                       # TLB misses on write requests (Count)
system.cpu11.mmu.itb.walker.power_state.pwrStateResidencyTicks::UNDEFINED 5050590311000                       # Cumulative time (in ticks) in various power states (Tick)
system.cpu11.power_state.numTransitions          2494                       # Number of power state transitions (Count)
system.cpu11.power_state.ticksClkGated::samples         1248                       # Distribution of time spent in the clock gated state
system.cpu11.power_state.ticksClkGated::mean 3667853621.794872                       # Distribution of time spent in the clock gated state
system.cpu11.power_state.ticksClkGated::stdev 1071592787.948962                       # Distribution of time spent in the clock gated state
system.cpu11.power_state.ticksClkGated::1000-5e+10         1248    100.00%    100.00% # Distribution of time spent in the clock gated state
system.cpu11.power_state.ticksClkGated::min_value       660000                       # Distribution of time spent in the clock gated state
system.cpu11.power_state.ticksClkGated::max_value  10001274000                       # Distribution of time spent in the clock gated state
system.cpu11.power_state.ticksClkGated::total         1248                       # Distribution of time spent in the clock gated state
system.cpu11.power_state.pwrStateResidencyTicks::ON 473108991000                       # Cumulative time (in ticks) in various power states (Tick)
system.cpu11.power_state.pwrStateResidencyTicks::CLK_GATED 4577481320000                       # Cumulative time (in ticks) in various power states (Tick)
system.cpu11.thread_0.numInsts                      0                       # Number of Instructions committed (Count)
system.cpu11.thread_0.numOps                        0                       # Number of Ops committed (Count)
system.cpu11.thread_0.numMemRefs                    0                       # Number of Memory References (Count)
system.cpu12.numCycles                    10100544613                       # Number of cpu cycles simulated (Cycle)
system.cpu12.numWorkItemsStarted                    0                       # Number of work items this cpu started (Count)
system.cpu12.numWorkItemsCompleted                  0                       # Number of work items this cpu completed (Count)
system.cpu12.exec_context.thread_0.numInsts      6230240                       # Number of instructions committed (Count)
system.cpu12.exec_context.thread_0.numOps     12248662                       # Number of ops (including micro ops) committed (Count)
system.cpu12.exec_context.thread_0.numIntAluAccesses     12065455                       # Number of integer alu accesses (Count)
system.cpu12.exec_context.thread_0.numFpAluAccesses           48                       # Number of float alu accesses (Count)
system.cpu12.exec_context.thread_0.numVecAluAccesses            0                       # Number of vector alu accesses (Count)
system.cpu12.exec_context.thread_0.numCallsReturns       285005                       # Number of times a function call or return occured (Count)
system.cpu12.exec_context.thread_0.numCondCtrlInsts       865779                       # Number of instructions that are conditional controls (Count)
system.cpu12.exec_context.thread_0.numIntInsts     12065455                       # Number of integer instructions (Count)
system.cpu12.exec_context.thread_0.numFpInsts           48                       # Number of float instructions (Count)
system.cpu12.exec_context.thread_0.numVecInsts            0                       # Number of vector instructions (Count)
system.cpu12.exec_context.thread_0.numIntRegReads     23440431                       # Number of times the integer registers were read (Count)
system.cpu12.exec_context.thread_0.numIntRegWrites     10076237                       # Number of times the integer registers were written (Count)
system.cpu12.exec_context.thread_0.numFpRegReads           48                       # Number of times the floating registers were read (Count)
system.cpu12.exec_context.thread_0.numFpRegWrites            0                       # Number of times the floating registers were written (Count)
system.cpu12.exec_context.thread_0.numVecRegReads            0                       # Number of times the vector registers were read (Count)
system.cpu12.exec_context.thread_0.numVecRegWrites            0                       # Number of times the vector registers were written (Count)
system.cpu12.exec_context.thread_0.numVecPredRegReads            0                       # Number of times the predicate registers were read (Count)
system.cpu12.exec_context.thread_0.numVecPredRegWrites            0                       # Number of times the predicate registers were written (Count)
system.cpu12.exec_context.thread_0.numCCRegReads      8055358                       # Number of times the CC registers were read (Count)
system.cpu12.exec_context.thread_0.numCCRegWrites      4332932                       # Number of times the CC registers were written (Count)
system.cpu12.exec_context.thread_0.numMemRefs      2495194                       # Number of memory refs (Count)
system.cpu12.exec_context.thread_0.numLoadInsts      1718238                       # Number of load instructions (Count)
system.cpu12.exec_context.thread_0.numStoreInsts       776956                       # Number of store instructions (Count)
system.cpu12.exec_context.thread_0.numIdleCycles 10074724615.828236                       # Number of idle cycles (Cycle)
system.cpu12.exec_context.thread_0.numBusyCycles 25819997.171764                       # Number of busy cycles (Cycle)
system.cpu12.exec_context.thread_0.notIdleFraction     0.002556                       # Percentage of non-idle cycles (Ratio)
system.cpu12.exec_context.thread_0.idleFraction     0.997444                       # Percentage of idle cycles (Ratio)
system.cpu12.exec_context.thread_0.numBranches      1278812                       # Number of branches fetched (Count)
system.cpu12.exec_context.thread_0.statExecutedInstType::No_OpClass        63368      0.52%      0.52% # Class of executed instruction. (Count)
system.cpu12.exec_context.thread_0.statExecutedInstType::IntAlu      9662401     78.89%     79.40% # Class of executed instruction. (Count)
system.cpu12.exec_context.thread_0.statExecutedInstType::IntMult        29719      0.24%     79.65% # Class of executed instruction. (Count)
system.cpu12.exec_context.thread_0.statExecutedInstType::IntDiv          450      0.00%     79.65% # Class of executed instruction. (Count)
system.cpu12.exec_context.thread_0.statExecutedInstType::FloatAdd            0      0.00%     79.65% # Class of executed instruction. (Count)
system.cpu12.exec_context.thread_0.statExecutedInstType::FloatCmp            0      0.00%     79.65% # Class of executed instruction. (Count)
system.cpu12.exec_context.thread_0.statExecutedInstType::FloatCvt           16      0.00%     79.65% # Class of executed instruction. (Count)
system.cpu12.exec_context.thread_0.statExecutedInstType::FloatMult            0      0.00%     79.65% # Class of executed instruction. (Count)
system.cpu12.exec_context.thread_0.statExecutedInstType::FloatMultAcc            0      0.00%     79.65% # Class of executed instruction. (Count)
system.cpu12.exec_context.thread_0.statExecutedInstType::FloatDiv            0      0.00%     79.65% # Class of executed instruction. (Count)
system.cpu12.exec_context.thread_0.statExecutedInstType::FloatMisc            0      0.00%     79.65% # Class of executed instruction. (Count)
system.cpu12.exec_context.thread_0.statExecutedInstType::FloatSqrt            0      0.00%     79.65% # Class of executed instruction. (Count)
system.cpu12.exec_context.thread_0.statExecutedInstType::SimdAdd            0      0.00%     79.65% # Class of executed instruction. (Count)
system.cpu12.exec_context.thread_0.statExecutedInstType::SimdAddAcc            0      0.00%     79.65% # Class of executed instruction. (Count)
system.cpu12.exec_context.thread_0.statExecutedInstType::SimdAlu            0      0.00%     79.65% # Class of executed instruction. (Count)
system.cpu12.exec_context.thread_0.statExecutedInstType::SimdCmp            0      0.00%     79.65% # Class of executed instruction. (Count)
system.cpu12.exec_context.thread_0.statExecutedInstType::SimdCvt            0      0.00%     79.65% # Class of executed instruction. (Count)
system.cpu12.exec_context.thread_0.statExecutedInstType::SimdMisc            0      0.00%     79.65% # Class of executed instruction. (Count)
system.cpu12.exec_context.thread_0.statExecutedInstType::SimdMult            0      0.00%     79.65% # Class of executed instruction. (Count)
system.cpu12.exec_context.thread_0.statExecutedInstType::SimdMultAcc            0      0.00%     79.65% # Class of executed instruction. (Count)
system.cpu12.exec_context.thread_0.statExecutedInstType::SimdShift            0      0.00%     79.65% # Class of executed instruction. (Count)
system.cpu12.exec_context.thread_0.statExecutedInstType::SimdShiftAcc            0      0.00%     79.65% # Class of executed instruction. (Count)
system.cpu12.exec_context.thread_0.statExecutedInstType::SimdDiv            0      0.00%     79.65% # Class of executed instruction. (Count)
system.cpu12.exec_context.thread_0.statExecutedInstType::SimdSqrt            0      0.00%     79.65% # Class of executed instruction. (Count)
system.cpu12.exec_context.thread_0.statExecutedInstType::SimdFloatAdd            0      0.00%     79.65% # Class of executed instruction. (Count)
system.cpu12.exec_context.thread_0.statExecutedInstType::SimdFloatAlu            0      0.00%     79.65% # Class of executed instruction. (Count)
system.cpu12.exec_context.thread_0.statExecutedInstType::SimdFloatCmp            0      0.00%     79.65% # Class of executed instruction. (Count)
system.cpu12.exec_context.thread_0.statExecutedInstType::SimdFloatCvt            0      0.00%     79.65% # Class of executed instruction. (Count)
system.cpu12.exec_context.thread_0.statExecutedInstType::SimdFloatDiv            0      0.00%     79.65% # Class of executed instruction. (Count)
system.cpu12.exec_context.thread_0.statExecutedInstType::SimdFloatMisc            0      0.00%     79.65% # Class of executed instruction. (Count)
system.cpu12.exec_context.thread_0.statExecutedInstType::SimdFloatMult            0      0.00%     79.65% # Class of executed instruction. (Count)
system.cpu12.exec_context.thread_0.statExecutedInstType::SimdFloatMultAcc            0      0.00%     79.65% # Class of executed instruction. (Count)
system.cpu12.exec_context.thread_0.statExecutedInstType::SimdFloatSqrt            0      0.00%     79.65% # Class of executed instruction. (Count)
system.cpu12.exec_context.thread_0.statExecutedInstType::SimdReduceAdd            0      0.00%     79.65% # Class of executed instruction. (Count)
system.cpu12.exec_context.thread_0.statExecutedInstType::SimdReduceAlu            0      0.00%     79.65% # Class of executed instruction. (Count)
system.cpu12.exec_context.thread_0.statExecutedInstType::SimdReduceCmp            0      0.00%     79.65% # Class of executed instruction. (Count)
system.cpu12.exec_context.thread_0.statExecutedInstType::SimdFloatReduceAdd            0      0.00%     79.65% # Class of executed instruction. (Count)
system.cpu12.exec_context.thread_0.statExecutedInstType::SimdFloatReduceCmp            0      0.00%     79.65% # Class of executed instruction. (Count)
system.cpu12.exec_context.thread_0.statExecutedInstType::SimdAes            0      0.00%     79.65% # Class of executed instruction. (Count)
system.cpu12.exec_context.thread_0.statExecutedInstType::SimdAesMix            0      0.00%     79.65% # Class of executed instruction. (Count)
system.cpu12.exec_context.thread_0.statExecutedInstType::SimdSha1Hash            0      0.00%     79.65% # Class of executed instruction. (Count)
system.cpu12.exec_context.thread_0.statExecutedInstType::SimdSha1Hash2            0      0.00%     79.65% # Class of executed instruction. (Count)
system.cpu12.exec_context.thread_0.statExecutedInstType::SimdSha256Hash            0      0.00%     79.65% # Class of executed instruction. (Count)
system.cpu12.exec_context.thread_0.statExecutedInstType::SimdSha256Hash2            0      0.00%     79.65% # Class of executed instruction. (Count)
system.cpu12.exec_context.thread_0.statExecutedInstType::SimdShaSigma2            0      0.00%     79.65% # Class of executed instruction. (Count)
system.cpu12.exec_context.thread_0.statExecutedInstType::SimdShaSigma3            0      0.00%     79.65% # Class of executed instruction. (Count)
system.cpu12.exec_context.thread_0.statExecutedInstType::SimdPredAlu            0      0.00%     79.65% # Class of executed instruction. (Count)
system.cpu12.exec_context.thread_0.statExecutedInstType::MemRead      1715752     14.01%     93.66% # Class of executed instruction. (Count)
system.cpu12.exec_context.thread_0.statExecutedInstType::MemWrite       776924      6.34%    100.00% # Class of executed instruction. (Count)
system.cpu12.exec_context.thread_0.statExecutedInstType::FloatMemRead            0      0.00%    100.00% # Class of executed instruction. (Count)
system.cpu12.exec_context.thread_0.statExecutedInstType::FloatMemWrite           32      0.00%    100.00% # Class of executed instruction. (Count)
system.cpu12.exec_context.thread_0.statExecutedInstType::IprAccess            0      0.00%    100.00% # Class of executed instruction. (Count)
system.cpu12.exec_context.thread_0.statExecutedInstType::InstPrefetch            0      0.00%    100.00% # Class of executed instruction. (Count)
system.cpu12.exec_context.thread_0.statExecutedInstType::total     12248662                       # Class of executed instruction. (Count)
system.cpu12.interrupts.clk_domain.clock         8000                       # Clock period in ticks (Tick)
system.cpu12.mmu.dtb.rdAccesses               1721832                       # TLB accesses on read requests (Count)
system.cpu12.mmu.dtb.wrAccesses                780547                       # TLB accesses on write requests (Count)
system.cpu12.mmu.dtb.rdMisses                      19                       # TLB misses on read requests (Count)
system.cpu12.mmu.dtb.wrMisses                       3                       # TLB misses on write requests (Count)
system.cpu12.mmu.dtb.walker.power_state.pwrStateResidencyTicks::UNDEFINED 5050590311000                       # Cumulative time (in ticks) in various power states (Tick)
system.cpu12.mmu.itb.rdAccesses                     0                       # TLB accesses on read requests (Count)
system.cpu12.mmu.itb.wrAccesses               8520974                       # TLB accesses on write requests (Count)
system.cpu12.mmu.itb.rdMisses                       0                       # TLB misses on read requests (Count)
system.cpu12.mmu.itb.wrMisses                       8                       # TLB misses on write requests (Count)
system.cpu12.mmu.itb.walker.power_state.pwrStateResidencyTicks::UNDEFINED 5050590311000                       # Cumulative time (in ticks) in various power states (Tick)
system.cpu12.power_state.numTransitions          2488                       # Number of power state transitions (Count)
system.cpu12.power_state.ticksClkGated::samples         1245                       # Distribution of time spent in the clock gated state
system.cpu12.power_state.ticksClkGated::mean 3667260103.614458                       # Distribution of time spent in the clock gated state
system.cpu12.power_state.ticksClkGated::stdev 1070713624.001544                       # Distribution of time spent in the clock gated state
system.cpu12.power_state.ticksClkGated::1000-5e+10         1245    100.00%    100.00% # Distribution of time spent in the clock gated state
system.cpu12.power_state.ticksClkGated::min_value       667000                       # Distribution of time spent in the clock gated state
system.cpu12.power_state.ticksClkGated::max_value  10001274000                       # Distribution of time spent in the clock gated state
system.cpu12.power_state.ticksClkGated::total         1245                       # Distribution of time spent in the clock gated state
system.cpu12.power_state.pwrStateResidencyTicks::ON 484851482000                       # Cumulative time (in ticks) in various power states (Tick)
system.cpu12.power_state.pwrStateResidencyTicks::CLK_GATED 4565738829000                       # Cumulative time (in ticks) in various power states (Tick)
system.cpu12.thread_0.numInsts                      0                       # Number of Instructions committed (Count)
system.cpu12.thread_0.numOps                        0                       # Number of Ops committed (Count)
system.cpu12.thread_0.numMemRefs                    0                       # Number of Memory References (Count)
system.cpu13.numCycles                    10100054614                       # Number of cpu cycles simulated (Cycle)
system.cpu13.numWorkItemsStarted                    0                       # Number of work items this cpu started (Count)
system.cpu13.numWorkItemsCompleted                  0                       # Number of work items this cpu completed (Count)
system.cpu13.exec_context.thread_0.numInsts      6227276                       # Number of instructions committed (Count)
system.cpu13.exec_context.thread_0.numOps     12242184                       # Number of ops (including micro ops) committed (Count)
system.cpu13.exec_context.thread_0.numIntAluAccesses     12058925                       # Number of integer alu accesses (Count)
system.cpu13.exec_context.thread_0.numFpAluAccesses           48                       # Number of float alu accesses (Count)
system.cpu13.exec_context.thread_0.numVecAluAccesses            0                       # Number of vector alu accesses (Count)
system.cpu13.exec_context.thread_0.numCallsReturns       284743                       # Number of times a function call or return occured (Count)
system.cpu13.exec_context.thread_0.numCondCtrlInsts       865560                       # Number of instructions that are conditional controls (Count)
system.cpu13.exec_context.thread_0.numIntInsts     12058925                       # Number of integer instructions (Count)
system.cpu13.exec_context.thread_0.numFpInsts           48                       # Number of float instructions (Count)
system.cpu13.exec_context.thread_0.numVecInsts            0                       # Number of vector instructions (Count)
system.cpu13.exec_context.thread_0.numIntRegReads     23427318                       # Number of times the integer registers were read (Count)
system.cpu13.exec_context.thread_0.numIntRegWrites     10070814                       # Number of times the integer registers were written (Count)
system.cpu13.exec_context.thread_0.numFpRegReads           48                       # Number of times the floating registers were read (Count)
system.cpu13.exec_context.thread_0.numFpRegWrites            0                       # Number of times the floating registers were written (Count)
system.cpu13.exec_context.thread_0.numVecRegReads            0                       # Number of times the vector registers were read (Count)
system.cpu13.exec_context.thread_0.numVecRegWrites            0                       # Number of times the vector registers were written (Count)
system.cpu13.exec_context.thread_0.numVecPredRegReads            0                       # Number of times the predicate registers were read (Count)
system.cpu13.exec_context.thread_0.numVecPredRegWrites            0                       # Number of times the predicate registers were written (Count)
system.cpu13.exec_context.thread_0.numCCRegReads      8052921                       # Number of times the CC registers were read (Count)
system.cpu13.exec_context.thread_0.numCCRegWrites      4330883                       # Number of times the CC registers were written (Count)
system.cpu13.exec_context.thread_0.numMemRefs      2493358                       # Number of memory refs (Count)
system.cpu13.exec_context.thread_0.numLoadInsts      1717126                       # Number of load instructions (Count)
system.cpu13.exec_context.thread_0.numStoreInsts       776232                       # Number of store instructions (Count)
system.cpu13.exec_context.thread_0.numIdleCycles 10074210324.259377                       # Number of idle cycles (Cycle)
[...]
system.ruby.network.routers7.port_buffers4.m_stall_time 11463.274211                       # Average number of cycles messages are stalled in this MB (Unspecified)
system.ruby.network.routers7.port_buffers7.m_buf_msgs     0.000010                       # Average number of messages in buffer (Unspecified)
system.ruby.network.routers7.port_buffers7.m_stall_time  1374.417065                       # Average number of cycles messages are stalled in this MB (Unspecified)
system.ruby.network.routers7.port_buffers9.m_buf_msgs     0.000018                       # Average number of messages in buffer (Unspecified)
system.ruby.network.routers7.port_buffers9.m_stall_time  5038.438144                       # Average number of cycles messages are stalled in this MB (Unspecified)
system.ruby.network.routers7.power_state.pwrStateResidencyTicks::UNDEFINED 5054007456000                       # Cumulative time (in ticks) in various power states (Tick)
system.ruby.network.routers7.throttle00.link_utilization     0.012394                       (Unspecified)
system.ruby.network.routers7.throttle00.msg_count.Request_Control::3        89481                       (Unspecified)
system.ruby.network.routers7.throttle00.msg_bytes.Request_Control::3       715848                       (Unspecified)
system.ruby.network.routers7.throttle00.msg_count.Response_Data::4       103978                       (Unspecified)
system.ruby.network.routers7.throttle00.msg_bytes.Response_Data::4      7486416                       (Unspecified)
system.ruby.network.routers7.throttle00.msg_count.Response_Control::4        79083                       (Unspecified)
system.ruby.network.routers7.throttle00.msg_bytes.Response_Control::4       632664                       (Unspecified)
system.ruby.network.routers7.throttle00.msg_count.Writeback_Control::3           39                       (Unspecified)
system.ruby.network.routers7.throttle00.msg_bytes.Writeback_Control::3          312                       (Unspecified)
system.ruby.network.routers7.throttle00.msg_count.Broadcast_Control::3         1799                       (Unspecified)
system.ruby.network.routers7.throttle00.msg_bytes.Broadcast_Control::3        14392                       (Unspecified)
system.ruby.network.routers7.throttle00.msg_count.Multicast_Control::3        92142                       (Unspecified)
system.ruby.network.routers7.throttle00.msg_bytes.Multicast_Control::3       737136                       (Unspecified)
system.ruby.network.routers7.throttle01.link_utilization     0.010584                       (Unspecified)
system.ruby.network.routers7.throttle01.msg_count.Request_Control::2       103995                       (Unspecified)
system.ruby.network.routers7.throttle01.msg_bytes.Request_Control::2       831960                       (Unspecified)
system.ruby.network.routers7.throttle01.msg_count.Response_Data::4        95407                       (Unspecified)
system.ruby.network.routers7.throttle01.msg_bytes.Response_Data::4      6869304                       (Unspecified)
system.ruby.network.routers7.throttle01.msg_count.Response_Control::4        88015                       (Unspecified)
system.ruby.network.routers7.throttle01.msg_bytes.Response_Control::4       704120                       (Unspecified)
system.ruby.network.routers7.throttle01.msg_count.Writeback_Data::5           22                       (Unspecified)
system.ruby.network.routers7.throttle01.msg_bytes.Writeback_Data::5         1584                       (Unspecified)
system.ruby.network.routers7.throttle01.msg_count.Writeback_Control::2           39                       (Unspecified)
system.ruby.network.routers7.throttle01.msg_count.Writeback_Control::5           17                       (Unspecified)
system.ruby.network.routers7.throttle01.msg_bytes.Writeback_Control::2          312                       (Unspecified)
system.ruby.network.routers7.throttle01.msg_bytes.Writeback_Control::5          136                       (Unspecified)
system.ruby.network.routers7.throttle01.msg_count.Unblock_Control::5       103995                       (Unspecified)
system.ruby.network.routers7.throttle01.msg_bytes.Unblock_Control::5       831960                       (Unspecified)
system.ruby.network.routers8.percent_links_utilized     0.012251                       (Unspecified)
system.ruby.network.routers8.msg_count.Request_Control::2       103949                       (Unspecified)
system.ruby.network.routers8.msg_count.Request_Control::3        88200                       (Unspecified)
system.ruby.network.routers8.msg_bytes.Request_Control::2       831592                       (Unspecified)
system.ruby.network.routers8.msg_bytes.Request_Control::3       705600                       (Unspecified)
system.ruby.network.routers8.msg_count.Response_Data::4       198014                       (Unspecified)
system.ruby.network.routers8.msg_bytes.Response_Data::4     14257008                       (Unspecified)
system.ruby.network.routers8.msg_count.Response_Control::4       167106                       (Unspecified)
system.ruby.network.routers8.msg_bytes.Response_Control::4      1336848                       (Unspecified)
system.ruby.network.routers8.msg_count.Writeback_Data::5           15                       (Unspecified)
system.ruby.network.routers8.msg_bytes.Writeback_Data::5         1080                       (Unspecified)
system.ruby.network.routers8.msg_count.Writeback_Control::2           21                       (Unspecified)
system.ruby.network.routers8.msg_count.Writeback_Control::3           21                       (Unspecified)
system.ruby.network.routers8.msg_count.Writeback_Control::5            6                       (Unspecified)
system.ruby.network.routers8.msg_bytes.Writeback_Control::2          168                       (Unspecified)
system.ruby.network.routers8.msg_bytes.Writeback_Control::3          168                       (Unspecified)
system.ruby.network.routers8.msg_bytes.Writeback_Control::5           48                       (Unspecified)
system.ruby.network.routers8.msg_count.Broadcast_Control::3         1799                       (Unspecified)
system.ruby.network.routers8.msg_bytes.Broadcast_Control::3        14392                       (Unspecified)
system.ruby.network.routers8.msg_count.Multicast_Control::3        92133                       (Unspecified)
system.ruby.network.routers8.msg_bytes.Multicast_Control::3       737064                       (Unspecified)
system.ruby.network.routers8.msg_count.Unblock_Control::5       103949                       (Unspecified)
system.ruby.network.routers8.msg_bytes.Unblock_Control::5       831592                       (Unspecified)
system.ruby.network.routers8.port_buffers10.m_buf_msgs     0.000010                       # Average number of messages in buffer (Unspecified)
system.ruby.network.routers8.port_buffers10.m_stall_time  5026.733296                       # Average number of cycles messages are stalled in this MB (Unspecified)
system.ruby.network.routers8.port_buffers3.m_buf_msgs     0.000018                       # Average number of messages in buffer (Unspecified)
system.ruby.network.routers8.port_buffers3.m_stall_time  3198.136640                       # Average number of cycles messages are stalled in this MB (Unspecified)
system.ruby.network.routers8.port_buffers4.m_buf_msgs     0.000018                       # Average number of messages in buffer (Unspecified)
system.ruby.network.routers8.port_buffers4.m_stall_time 11449.579306                       # Average number of cycles messages are stalled in this MB (Unspecified)
system.ruby.network.routers8.port_buffers7.m_buf_msgs     0.000010                       # Average number of messages in buffer (Unspecified)
system.ruby.network.routers8.port_buffers7.m_stall_time  1370.927552                       # Average number of cycles messages are stalled in this MB (Unspecified)
system.ruby.network.routers8.port_buffers9.m_buf_msgs     0.000018                       # Average number of messages in buffer (Unspecified)
system.ruby.network.routers8.port_buffers9.m_stall_time  5025.643156                       # Average number of cycles messages are stalled in this MB (Unspecified)
system.ruby.network.routers8.power_state.pwrStateResidencyTicks::UNDEFINED 5054007456000                       # Cumulative time (in ticks) in various power states (Tick)
system.ruby.network.routers8.throttle00.link_utilization     0.012446                       (Unspecified)
system.ruby.network.routers8.throttle00.msg_count.Request_Control::3        88200                       (Unspecified)
system.ruby.network.routers8.throttle00.msg_bytes.Request_Control::3       705600                       (Unspecified)
system.ruby.network.routers8.throttle00.msg_count.Response_Data::4       103932                       (Unspecified)
system.ruby.network.routers8.throttle00.msg_bytes.Response_Data::4      7483104                       (Unspecified)
system.ruby.network.routers8.throttle00.msg_count.Response_Control::4        79056                       (Unspecified)
system.ruby.network.routers8.throttle00.msg_bytes.Response_Control::4       632448                       (Unspecified)
system.ruby.network.routers8.throttle00.msg_count.Writeback_Control::3           21                       (Unspecified)
system.ruby.network.routers8.throttle00.msg_bytes.Writeback_Control::3          168                       (Unspecified)
system.ruby.network.routers8.throttle00.msg_count.Broadcast_Control::3         1799                       (Unspecified)
system.ruby.network.routers8.throttle00.msg_bytes.Broadcast_Control::3        14392                       (Unspecified)
system.ruby.network.routers8.throttle00.msg_count.Multicast_Control::3        92133                       (Unspecified)
system.ruby.network.routers8.throttle00.msg_bytes.Multicast_Control::3       737064                       (Unspecified)
system.ruby.network.routers8.throttle01.link_utilization     0.012057                       (Unspecified)
system.ruby.network.routers8.throttle01.msg_count.Request_Control::2       103949                       (Unspecified)
system.ruby.network.routers8.throttle01.msg_bytes.Request_Control::2       831592                       (Unspecified)
system.ruby.network.routers8.throttle01.msg_count.Response_Data::4        94082                       (Unspecified)
system.ruby.network.routers8.throttle01.msg_bytes.Response_Data::4      6773904                       (Unspecified)
system.ruby.network.routers8.throttle01.msg_count.Response_Control::4        88050                       (Unspecified)
system.ruby.network.routers8.throttle01.msg_bytes.Response_Control::4       704400                       (Unspecified)
system.ruby.network.routers8.throttle01.msg_count.Writeback_Data::5           15                       (Unspecified)
system.ruby.network.routers8.throttle01.msg_bytes.Writeback_Data::5         1080                       (Unspecified)
system.ruby.network.routers8.throttle01.msg_count.Writeback_Control::2           21                       (Unspecified)
system.ruby.network.routers8.throttle01.msg_count.Writeback_Control::5            6                       (Unspecified)
system.ruby.network.routers8.throttle01.msg_bytes.Writeback_Control::2          168                       (Unspecified)
system.ruby.network.routers8.throttle01.msg_bytes.Writeback_Control::5           48                       (Unspecified)
system.ruby.network.routers8.throttle01.msg_count.Unblock_Control::5       103949                       (Unspecified)
system.ruby.network.routers8.throttle01.msg_bytes.Unblock_Control::5       831592                       (Unspecified)
system.ruby.network.routers9.percent_links_utilized     0.006713                       (Unspecified)
system.ruby.network.routers9.msg_count.Request_Control::2       103909                       (Unspecified)
system.ruby.network.routers9.msg_count.Request_Control::3        88126                       (Unspecified)
system.ruby.network.routers9.msg_bytes.Request_Control::2       831272                       (Unspecified)
system.ruby.network.routers9.msg_bytes.Request_Control::3       705008                       (Unspecified)
system.ruby.network.routers9.msg_count.Response_Data::4       197908                       (Unspecified)
system.ruby.network.routers9.msg_bytes.Response_Data::4     14249376                       (Unspecified)
system.ruby.network.routers9.msg_count.Response_Control::4       167064                       (Unspecified)
system.ruby.network.routers9.msg_bytes.Response_Control::4      1336512                       (Unspecified)
system.ruby.network.routers9.msg_count.Writeback_Data::5           23                       (Unspecified)
system.ruby.network.routers9.msg_bytes.Writeback_Data::5         1656                       (Unspecified)
system.ruby.network.routers9.msg_count.Writeback_Control::2           31                       (Unspecified)
system.ruby.network.routers9.msg_count.Writeback_Control::3           31                       (Unspecified)
system.ruby.network.routers9.msg_count.Writeback_Control::5            8                       (Unspecified)
system.ruby.network.routers9.msg_bytes.Writeback_Control::2          248                       (Unspecified)
system.ruby.network.routers9.msg_bytes.Writeback_Control::3          248                       (Unspecified)
system.ruby.network.routers9.msg_bytes.Writeback_Control::5           64                       (Unspecified)
system.ruby.network.routers9.msg_count.Broadcast_Control::3         1799                       (Unspecified)
system.ruby.network.routers9.msg_bytes.Broadcast_Control::3        14392                       (Unspecified)
system.ruby.network.routers9.msg_count.Multicast_Control::3        92114                       (Unspecified)
system.ruby.network.routers9.msg_bytes.Multicast_Control::3       736912                       (Unspecified)
system.ruby.network.routers9.msg_count.Unblock_Control::5       103909                       (Unspecified)
system.ruby.network.routers9.msg_bytes.Unblock_Control::5       831272                       (Unspecified)
system.ruby.network.routers9.port_buffers10.m_buf_msgs     0.000010                       # Average number of messages in buffer (Unspecified)
system.ruby.network.routers9.port_buffers10.m_stall_time  5013.941460                       # Average number of cycles messages are stalled in this MB (Unspecified)
system.ruby.network.routers9.port_buffers3.m_buf_msgs     0.000018                       # Average number of messages in buffer (Unspecified)
system.ruby.network.routers9.port_buffers3.m_stall_time  3189.997010                       # Average number of cycles messages are stalled in this MB (Unspecified)
system.ruby.network.routers9.port_buffers4.m_buf_msgs     0.000018                       # Average number of messages in buffer (Unspecified)
system.ruby.network.routers9.port_buffers4.m_stall_time 11436.772560                       # Average number of cycles messages are stalled in this MB (Unspecified)
system.ruby.network.routers9.port_buffers7.m_buf_msgs     0.000010                       # Average number of messages in buffer (Unspecified)
system.ruby.network.routers9.port_buffers7.m_stall_time  1367.438922                       # Average number of cycles messages are stalled in this MB (Unspecified)
system.ruby.network.routers9.port_buffers9.m_buf_msgs     0.000018                       # Average number of messages in buffer (Unspecified)
system.ruby.network.routers9.port_buffers9.m_stall_time  5012.851314                       # Average number of cycles messages are stalled in this MB (Unspecified)
system.ruby.network.routers9.power_state.pwrStateResidencyTicks::UNDEFINED 5054007456000                       # Cumulative time (in ticks) in various power states (Tick)
system.ruby.network.routers9.throttle00.link_utilization     0.004634                       (Unspecified)
system.ruby.network.routers9.throttle00.msg_count.Request_Control::3        88126                       (Unspecified)
system.ruby.network.routers9.throttle00.msg_bytes.Request_Control::3       705008                       (Unspecified)
system.ruby.network.routers9.throttle00.msg_count.Response_Data::4       103892                       (Unspecified)
system.ruby.network.routers9.throttle00.msg_bytes.Response_Data::4      7480224                       (Unspecified)
system.ruby.network.routers9.throttle00.msg_count.Response_Control::4        79041                       (Unspecified)
system.ruby.network.routers9.throttle00.msg_bytes.Response_Control::4       632328                       (Unspecified)
system.ruby.network.routers9.throttle00.msg_count.Writeback_Control::3           31                       (Unspecified)
system.ruby.network.routers9.throttle00.msg_bytes.Writeback_Control::3          248                       (Unspecified)
system.ruby.network.routers9.throttle00.msg_count.Broadcast_Control::3         1799                       (Unspecified)
system.ruby.network.routers9.throttle00.msg_bytes.Broadcast_Control::3        14392                       (Unspecified)
system.ruby.network.routers9.throttle00.msg_count.Multicast_Control::3        92114                       (Unspecified)
system.ruby.network.routers9.throttle00.msg_bytes.Multicast_Control::3       736912                       (Unspecified)
system.ruby.network.routers9.throttle01.link_utilization     0.008791                       (Unspecified)
system.ruby.network.routers9.throttle01.msg_count.Request_Control::2       103909                       (Unspecified)
system.ruby.network.routers9.throttle01.msg_bytes.Request_Control::2       831272                       (Unspecified)
system.ruby.network.routers9.throttle01.msg_count.Response_Data::4        94016                       (Unspecified)
system.ruby.network.routers9.throttle01.msg_bytes.Response_Data::4      6769152                       (Unspecified)
system.ruby.network.routers9.throttle01.msg_count.Response_Control::4        88023                       (Unspecified)
system.ruby.network.routers9.throttle01.msg_bytes.Response_Control::4       704184                       (Unspecified)
system.ruby.network.routers9.throttle01.msg_count.Writeback_Data::5           23                       (Unspecified)
system.ruby.network.routers9.throttle01.msg_bytes.Writeback_Data::5         1656                       (Unspecified)
system.ruby.network.routers9.throttle01.msg_count.Writeback_Control::2           31                       (Unspecified)
system.ruby.network.routers9.throttle01.msg_count.Writeback_Control::5            8                       (Unspecified)
system.ruby.network.routers9.throttle01.msg_bytes.Writeback_Control::2          248                       (Unspecified)
system.ruby.network.routers9.throttle01.msg_bytes.Writeback_Control::5           64                       (Unspecified)
system.ruby.network.routers9.throttle01.msg_count.Unblock_Control::5       103909                       (Unspecified)
system.ruby.network.routers9.throttle01.msg_bytes.Unblock_Control::5       831272                       (Unspecified)
system.ruby.power_state.pwrStateResidencyTicks::UNDEFINED 5054007456000                       # Cumulative time (in ticks) in various power states (Tick)
system.sys_port_proxy.power_state.pwrStateResidencyTicks::UNDEFINED   3417145000                       # Cumulative time (in ticks) in various power states (Tick)
system.voltage_domain.voltage                       1                       # Voltage in Volts (Volt)
system.workload.inst.arm                            0                       # number of arm instructions executed (Count)
system.workload.inst.quiesce                       54                       # number of quiesce instructions executed (Count)

---------- End Simulation Statistics   ----------
