
---------- Begin Simulation Statistics ----------
simSeconds                                   5.050802                       # Number of seconds simulated (Second)
simTicks                                 5050801767500                       # Number of ticks simulated (Tick)
finalTick                                5050801767500                       # Number of ticks from beginning of simulation (restored from checkpoints and never reset) (Tick)
simFreq                                  1000000000000                       # The number of ticks per simulated second ((Tick/Second))
hostSeconds                                   4200.36                       # Real time elapsed on the host (Second)
hostTickRate                               1202468669                       # The number of ticks simulated per host second (ticks/s) ((Tick/Second))
hostMemory                                    2224148                       # Number of bytes of host memory used (Byte)
simInsts                                    327212912                       # Number of instructions simulated (Count)
simOps                                      785203416                       # Number of ops (including micro ops) simulated (Count)
hostInstRate                                    77901                       # Simulator instruction rate (inst/s) ((Count/Second))
hostOpRate                                     186937                       # Simulator op (including micro ops) rate (op/s) ((Count/Second))
system.clk_domain.clock                          1000                       # Clock period in ticks (Tick)
system.cpu0.numCycles                     10101016824                       # Number of cpu cycles simulated (Cycle)
system.cpu0.numWorkItemsStarted                     0                       # Number of work items this cpu started (Count)
system.cpu0.numWorkItemsCompleted                   0                       # Number of work items this cpu completed (Count)
system.cpu0.exec_context.thread_0.numInsts    211641231                       # Number of instructions committed (Count)
system.cpu0.exec_context.thread_0.numOps    556723515                       # Number of ops (including micro ops) committed (Count)
system.cpu0.exec_context.thread_0.numIntAluAccesses    498301441                       # Number of integer alu accesses (Count)
system.cpu0.exec_context.thread_0.numFpAluAccesses        21969                       # Number of float alu accesses (Count)
system.cpu0.exec_context.thread_0.numVecAluAccesses            0                       # Number of vector alu accesses (Count)
system.cpu0.exec_context.thread_0.numCallsReturns      3038534                       # Number of times a function call or return occured (Count)
system.cpu0.exec_context.thread_0.numCondCtrlInsts     70453669                       # Number of instructions that are conditional controls (Count)
system.cpu0.exec_context.thread_0.numIntInsts    498301441                       # Number of integer instructions (Count)
system.cpu0.exec_context.thread_0.numFpInsts        21969                       # Number of float instructions (Count)
system.cpu0.exec_context.thread_0.numVecInsts            0                       # Number of vector instructions (Count)
system.cpu0.exec_context.thread_0.numIntRegReads    821496252                       # Number of times the integer registers were read (Count)
system.cpu0.exec_context.thread_0.numIntRegWrites    413725753                       # Number of times the integer registers were written (Count)
system.cpu0.exec_context.thread_0.numFpRegReads        37038                       # Number of times the floating registers were read (Count)
system.cpu0.exec_context.thread_0.numFpRegWrites        17391                       # Number of times the floating registers were written (Count)
system.cpu0.exec_context.thread_0.numVecRegReads            0                       # Number of times the vector registers were read (Count)
system.cpu0.exec_context.thread_0.numVecRegWrites            0                       # Number of times the vector registers were written (Count)
system.cpu0.exec_context.thread_0.numVecPredRegReads            0                       # Number of times the predicate registers were read (Count)
system.cpu0.exec_context.thread_0.numVecPredRegWrites            0                       # Number of times the predicate registers were written (Count)
system.cpu0.exec_context.thread_0.numCCRegReads    373504246                       # Number of times the CC registers were read (Count)
system.cpu0.exec_context.thread_0.numCCRegWrites    160655117                       # Number of times the CC registers were written (Count)
system.cpu0.exec_context.thread_0.numMemRefs     84781642                       # Number of memory refs (Count)
system.cpu0.exec_context.thread_0.numLoadInsts     62051434                       # Number of load instructions (Count)
system.cpu0.exec_context.thread_0.numStoreInsts     22730208                       # Number of store instructions (Count)
system.cpu0.exec_context.thread_0.numIdleCycles 9225098560.569456                       # Number of idle cycles (Cycle)
system.cpu0.exec_context.thread_0.numBusyCycles 875918263.430544                       # Number of busy cycles (Cycle)
system.cpu0.exec_context.thread_0.notIdleFraction     0.086716                       # Percentage of non-idle cycles (Ratio)
system.cpu0.exec_context.thread_0.idleFraction     0.913284                       # Percentage of idle cycles (Ratio)
system.cpu0.exec_context.thread_0.numBranches     75269240                       # Number of branches fetched (Count)
system.cpu0.exec_context.thread_0.statExecutedInstType::No_OpClass     13723102      2.46%      2.46% # Class of executed instruction. (Count)
system.cpu0.exec_context.thread_0.statExecutedInstType::IntAlu    457843811     82.24%     84.70% # Class of executed instruction. (Count)
system.cpu0.exec_context.thread_0.statExecutedInstType::IntMult       322850      0.06%     84.76% # Class of executed instruction. (Count)
system.cpu0.exec_context.thread_0.statExecutedInstType::IntDiv        41260      0.01%     84.77% # Class of executed instruction. (Count)
system.cpu0.exec_context.thread_0.statExecutedInstType::FloatAdd          501      0.00%     84.77% # Class of executed instruction. (Count)
system.cpu0.exec_context.thread_0.statExecutedInstType::FloatCmp            0      0.00%     84.77% # Class of executed instruction. (Count)
system.cpu0.exec_context.thread_0.statExecutedInstType::FloatCvt           16      0.00%     84.77% # Class of executed instruction. (Count)
system.cpu0.exec_context.thread_0.statExecutedInstType::FloatMult            0      0.00%     84.77% # Class of executed instruction. (Count)
system.cpu0.exec_context.thread_0.statExecutedInstType::FloatMultAcc            0      0.00%     84.77% # Class of executed instruction. (Count)
system.cpu0.exec_context.thread_0.statExecutedInstType::FloatDiv            0      0.00%     84.77% # Class of executed instruction. (Count)
system.cpu0.exec_context.thread_0.statExecutedInstType::FloatMisc            0      0.00%     84.77% # Class of executed instruction. (Count)
system.cpu0.exec_context.thread_0.statExecutedInstType::FloatSqrt            0      0.00%     84.77% # Class of executed instruction. (Count)
system.cpu0.exec_context.thread_0.statExecutedInstType::SimdAdd          642      0.00%     84.77% # Class of executed instruction. (Count)
system.cpu0.exec_context.thread_0.statExecutedInstType::SimdAddAcc            0      0.00%     84.77% # Class of executed instruction. (Count)
system.cpu0.exec_context.thread_0.statExecutedInstType::SimdAlu         1784      0.00%     84.77% # Class of executed instruction. (Count)
system.cpu0.exec_context.thread_0.statExecutedInstType::SimdCmp            0      0.00%     84.77% # Class of executed instruction. (Count)
system.cpu0.exec_context.thread_0.statExecutedInstType::SimdCvt         5052      0.00%     84.77% # Class of executed instruction. (Count)
system.cpu0.exec_context.thread_0.statExecutedInstType::SimdMisc         7539      0.00%     84.77% # Class of executed instruction. (Count)
system.cpu0.exec_context.thread_0.statExecutedInstType::SimdMult            0      0.00%     84.77% # Class of executed instruction. (Count)
system.cpu0.exec_context.thread_0.statExecutedInstType::SimdMultAcc            0      0.00%     84.77% # Class of executed instruction. (Count)
system.cpu0.exec_context.thread_0.statExecutedInstType::SimdShift          330      0.00%     84.77% # Class of executed instruction. (Count)
system.cpu0.exec_context.thread_0.statExecutedInstType::SimdShiftAcc            0      0.00%     84.77% # Class of executed instruction. (Count)
system.cpu0.exec_context.thread_0.statExecutedInstType::SimdDiv            0      0.00%     84.77% # Class of executed instruction. (Count)
system.cpu0.exec_context.thread_0.statExecutedInstType::SimdSqrt            0      0.00%     84.77% # Class of executed instruction. (Count)
system.cpu0.exec_context.thread_0.statExecutedInstType::SimdFloatAdd            0      0.00%     84.77% # Class of executed instruction. (Count)
system.cpu0.exec_context.thread_0.statExecutedInstType::SimdFloatAlu            0      0.00%     84.77% # Class of executed instruction. (Count)
system.cpu0.exec_context.thread_0.statExecutedInstType::SimdFloatCmp            0      0.00%     84.77% # Class of executed instruction. (Count)
system.cpu0.exec_context.thread_0.statExecutedInstType::SimdFloatCvt            0      0.00%     84.77% # Class of executed instruction. (Count)
system.cpu0.exec_context.thread_0.statExecutedInstType::SimdFloatDiv            0      0.00%     84.77% # Class of executed instruction. (Count)
system.cpu0.exec_context.thread_0.statExecutedInstType::SimdFloatMisc            0      0.00%     84.77% # Class of executed instruction. (Count)
system.cpu0.exec_context.thread_0.statExecutedInstType::SimdFloatMult            0      0.00%     84.77% # Class of executed instruction. (Count)
system.cpu0.exec_context.thread_0.statExecutedInstType::SimdFloatMultAcc            0      0.00%     84.77% # Class of executed instruction. (Count)
system.cpu0.exec_context.thread_0.statExecutedInstType::SimdFloatSqrt            0      0.00%     84.77% # Class of executed instruction. (Count)
system.cpu0.exec_context.thread_0.statExecutedInstType::SimdReduceAdd            0      0.00%     84.77% # Class of executed instruction. (Count)
system.cpu0.exec_context.thread_0.statExecutedInstType::SimdReduceAlu            0      0.00%     84.77% # Class of executed instruction. (Count)
system.cpu0.exec_context.thread_0.statExecutedInstType::SimdReduceCmp            0      0.00%     84.77% # Class of executed instruction. (Count)
system.cpu0.exec_context.thread_0.statExecutedInstType::SimdFloatReduceAdd            0      0.00%     84.77% # Class of executed instruction. (Count)
system.cpu0.exec_context.thread_0.statExecutedInstType::SimdFloatReduceCmp            0      0.00%     84.77% # Class of executed instruction. (Count)
system.cpu0.exec_context.thread_0.statExecutedInstType::SimdAes            0      0.00%     84.77% # Class of executed instruction. (Count)
system.cpu0.exec_context.thread_0.statExecutedInstType::SimdAesMix            0      0.00%     84.77% # Class of executed instruction. (Count)
system.cpu0.exec_context.thread_0.statExecutedInstType::SimdSha1Hash            0      0.00%     84.77% # Class of executed instruction. (Count)
system.cpu0.exec_context.thread_0.statExecutedInstType::SimdSha1Hash2            0      0.00%     84.77% # Class of executed instruction. (Count)
system.cpu0.exec_context.thread_0.statExecutedInstType::SimdSha256Hash            0      0.00%     84.77% # Class of executed instruction. (Count)
system.cpu0.exec_context.thread_0.statExecutedInstType::SimdSha256Hash2            0      0.00%     84.77% # Class of executed instruction. (Count)
system.cpu0.exec_context.thread_0.statExecutedInstType::SimdShaSigma2            0      0.00%     84.77% # Class of executed instruction. (Count)
system.cpu0.exec_context.thread_0.statExecutedInstType::SimdShaSigma3            0      0.00%     84.77% # Class of executed instruction. (Count)
system.cpu0.exec_context.thread_0.statExecutedInstType::SimdPredAlu            0      0.00%     84.77% # Class of executed instruction. (Count)
system.cpu0.exec_context.thread_0.statExecutedInstType::MemRead     62043175     11.14%     95.92% # Class of executed instruction. (Count)
system.cpu0.exec_context.thread_0.statExecutedInstType::MemWrite     22730061      4.08%    100.00% # Class of executed instruction. (Count)
system.cpu0.exec_context.thread_0.statExecutedInstType::FloatMemRead         3733      0.00%    100.00% # Class of executed instruction. (Count)
system.cpu0.exec_context.thread_0.statExecutedInstType::FloatMemWrite          147      0.00%    100.00% # Class of executed instruction. (Count)
system.cpu0.exec_context.thread_0.statExecutedInstType::IprAccess            0      0.00%    100.00% # Class of executed instruction. (Count)
system.cpu0.exec_context.thread_0.statExecutedInstType::InstPrefetch            0      0.00%    100.00% # Class of executed instruction. (Count)
system.cpu0.exec_context.thread_0.statExecutedInstType::total    556724003                       # Class of executed instruction. (Count)
system.cpu0.interrupts.clk_domain.clock          8000                       # Clock period in ticks (Tick)
system.cpu0.mmu.dtb.rdAccesses               61893811                       # TLB accesses on read requests (Count)
system.cpu0.mmu.dtb.wrAccesses               22711194                       # TLB accesses on write requests (Count)
system.cpu0.mmu.dtb.rdMisses                      722                       # TLB misses on read requests (Count)
system.cpu0.mmu.dtb.wrMisses                      280                       # TLB misses on write requests (Count)
system.cpu0.mmu.dtb.walker.power_state.pwrStateResidencyTicks::UNDEFINED 5050801767500                       # Cumulative time (in ticks) in various power states (Tick)
system.cpu0.mmu.itb.rdAccesses                      0                       # TLB accesses on read requests (Count)
system.cpu0.mmu.itb.wrAccesses              280023146                       # TLB accesses on write requests (Count)
system.cpu0.mmu.itb.rdMisses                        0                       # TLB misses on read requests (Count)
system.cpu0.mmu.itb.wrMisses                      720                       # TLB misses on write requests (Count)
system.cpu0.mmu.itb.walker.power_state.pwrStateResidencyTicks::UNDEFINED 5050801767500                       # Cumulative time (in ticks) in various power states (Tick)
system.cpu0.power_state.numTransitions          24692                       # Number of power state transitions (Count)
system.cpu0.power_state.ticksClkGated::samples        12304                       # Distribution of time spent in the clock gated state
system.cpu0.power_state.ticksClkGated::mean 374903868.434087                       # Distribution of time spent in the clock gated state
system.cpu0.power_state.ticksClkGated::stdev 1131995028.376832                       # Distribution of time spent in the clock gated state
system.cpu0.power_state.ticksClkGated::1000-5e+10        12304    100.00%    100.00% # Distribution of time spent in the clock gated state
system.cpu0.power_state.ticksClkGated::min_value        34000                       # Distribution of time spent in the clock gated state
system.cpu0.power_state.ticksClkGated::max_value   3988429500                       # Distribution of time spent in the clock gated state
system.cpu0.power_state.ticksClkGated::total        12304                       # Distribution of time spent in the clock gated state
system.cpu0.power_state.pwrStateResidencyTicks::ON 437984570287                       # Cumulative time (in ticks) in various power states (Tick)
system.cpu0.power_state.pwrStateResidencyTicks::CLK_GATED 4612817197213                       # Cumulative time (in ticks) in various power states (Tick)
system.cpu0.thread_0.numInsts                       0                       # Number of Instructions committed (Count)
system.cpu0.thread_0.numOps                         0                       # Number of Ops committed (Count)
system.cpu0.thread_0.numMemRefs                     0                       # Number of Memory References (Count)
system.cpu1.numCycles                     10101232767                       # Number of cpu cycles simulated (Cycle)
system.cpu1.numWorkItemsStarted                     0                       # Number of work items this cpu started (Count)
system.cpu1.numWorkItemsCompleted                   0                       # Number of work items this cpu completed (Count)
system.cpu1.exec_context.thread_0.numInsts     17273699                       # Number of instructions committed (Count)
system.cpu1.exec_context.thread_0.numOps     35799685                       # Number of ops (including micro ops) committed (Count)
system.cpu1.exec_context.thread_0.numIntAluAccesses     34856028                       # Number of integer alu accesses (Count)
system.cpu1.exec_context.thread_0.numFpAluAccesses          911                       # Number of float alu accesses (Count)
system.cpu1.exec_context.thread_0.numVecAluAccesses            0                       # Number of vector alu accesses (Count)
system.cpu1.exec_context.thread_0.numCallsReturns       844128                       # Number of times a function call or return occured (Count)
system.cpu1.exec_context.thread_0.numCondCtrlInsts      2643127                       # Number of instructions that are conditional controls (Count)
system.cpu1.exec_context.thread_0.numIntInsts     34856028                       # Number of integer instructions (Count)
system.cpu1.exec_context.thread_0.numFpInsts          911                       # Number of float instructions (Count)
system.cpu1.exec_context.thread_0.numVecInsts            0                       # Number of vector instructions (Count)
system.cpu1.exec_context.thread_0.numIntRegReads     70638996                       # Number of times the integer registers were read (Count)
system.cpu1.exec_context.thread_0.numIntRegWrites     28617967                       # Number of times the integer registers were written (Count)
system.cpu1.exec_context.thread_0.numFpRegReads         1513                       # Number of times the floating registers were read (Count)
system.cpu1.exec_context.thread_0.numFpRegWrites          711                       # Number of times the floating registers were written (Count)
system.cpu1.exec_context.thread_0.numVecRegReads            0                       # Number of times the vector registers were read (Count)
system.cpu1.exec_context.thread_0.numVecRegWrites            0                       # Number of times the vector registers were written (Count)
system.cpu1.exec_context.thread_0.numVecPredRegReads            0                       # Number of times the predicate registers were read (Count)
system.cpu1.exec_context.thread_0.numVecPredRegWrites            0                       # Number of times the predicate registers were written (Count)
system.cpu1.exec_context.thread_0.numCCRegReads     21161523                       # Number of times the CC registers were read (Count)
system.cpu1.exec_context.thread_0.numCCRegWrites     11542655                       # Number of times the CC registers were written (Count)
system.cpu1.exec_context.thread_0.numMemRefs      8317431                       # Number of memory refs (Count)
system.cpu1.exec_context.thread_0.numLoadInsts      5216074                       # Number of load instructions (Count)
system.cpu1.exec_context.thread_0.numStoreInsts      3101357                       # Number of store instructions (Count)
system.cpu1.exec_context.thread_0.numIdleCycles 10019693997.898708                       # Number of idle cycles (Cycle)
system.cpu1.exec_context.thread_0.numBusyCycles 81538769.101291                       # Number of busy cycles (Cycle)
system.cpu1.exec_context.thread_0.notIdleFraction     0.008072                       # Percentage of non-idle cycles (Ratio)
system.cpu1.exec_context.thread_0.idleFraction     0.991928                       # Percentage of idle cycles (Ratio)
system.cpu1.exec_context.thread_0.numBranches      3822216                       # Number of branches fetched (Count)
system.cpu1.exec_context.thread_0.statExecutedInstType::No_OpClass       650349      1.82%      1.82% # Class of executed instruction. (Count)
system.cpu1.exec_context.thread_0.statExecutedInstType::IntAlu     26746807     74.71%     76.53% # Class of executed instruction. (Count)
system.cpu1.exec_context.thread_0.statExecutedInstType::IntMult        75990      0.21%     76.74% # Class of executed instruction. (Count)
system.cpu1.exec_context.thread_0.statExecutedInstType::IntDiv        15269      0.04%     76.78% # Class of executed instruction. (Count)
system.cpu1.exec_context.thread_0.statExecutedInstType::FloatAdd           13      0.00%     76.78% # Class of executed instruction. (Count)
system.cpu1.exec_context.thread_0.statExecutedInstType::FloatCmp            0      0.00%     76.78% # Class of executed instruction. (Count)
system.cpu1.exec_context.thread_0.statExecutedInstType::FloatCvt           16      0.00%     76.78% # Class of executed instruction. (Count)
system.cpu1.exec_context.thread_0.statExecutedInstType::FloatMult            0      0.00%     76.78% # Class of executed instruction. (Count)
system.cpu1.exec_context.thread_0.statExecutedInstType::FloatMultAcc            0      0.00%     76.78% # Class of executed instruction. (Count)
system.cpu1.exec_context.thread_0.statExecutedInstType::FloatDiv            0      0.00%     76.78% # Class of executed instruction. (Count)
system.cpu1.exec_context.thread_0.statExecutedInstType::FloatMisc            0      0.00%     76.78% # Class of executed instruction. (Count)
system.cpu1.exec_context.thread_0.statExecutedInstType::FloatSqrt            0      0.00%     76.78% # Class of executed instruction. (Count)
system.cpu1.exec_context.thread_0.statExecutedInstType::SimdAdd           50      0.00%     76.78% # Class of executed instruction. (Count)
system.cpu1.exec_context.thread_0.statExecutedInstType::SimdAddAcc            0      0.00%     76.78% # Class of executed instruction. (Count)
system.cpu1.exec_context.thread_0.statExecutedInstType::SimdAlu          114      0.00%     76.78% # Class of executed instruction. (Count)
system.cpu1.exec_context.thread_0.statExecutedInstType::SimdCmp            0      0.00%     76.78% # Class of executed instruction. (Count)
system.cpu1.exec_context.thread_0.statExecutedInstType::SimdCvt          196      0.00%     76.78% # Class of executed instruction. (Count)
system.cpu1.exec_context.thread_0.statExecutedInstType::SimdMisc          237      0.00%     76.79% # Class of executed instruction. (Count)
system.cpu1.exec_context.thread_0.statExecutedInstType::SimdMult            0      0.00%     76.79% # Class of executed instruction. (Count)
system.cpu1.exec_context.thread_0.statExecutedInstType::SimdMultAcc            0      0.00%     76.79% # Class of executed instruction. (Count)
system.cpu1.exec_context.thread_0.statExecutedInstType::SimdShift            0      0.00%     76.79% # Class of executed instruction. (Count)
system.cpu1.exec_context.thread_0.statExecutedInstType::SimdShiftAcc            0      0.00%     76.79% # Class of executed instruction. (Count)
system.cpu1.exec_context.thread_0.statExecutedInstType::SimdDiv            0      0.00%     76.79% # Class of executed instruction. (Count)
system.cpu1.exec_context.thread_0.statExecutedInstType::SimdSqrt            0      0.00%     76.79% # Class of executed instruction. (Count)
system.cpu1.exec_context.thread_0.statExecutedInstType::SimdFloatAdd            0      0.00%     76.79% # Class of executed instruction. (Count)
system.cpu1.exec_context.thread_0.statExecutedInstType::SimdFloatAlu            0      0.00%     76.79% # Class of executed instruction. (Count)
system.cpu1.exec_context.thread_0.statExecutedInstType::SimdFloatCmp            0      0.00%     76.79% # Class of executed instruction. (Count)
system.cpu1.exec_context.thread_0.statExecutedInstType::SimdFloatCvt            0      0.00%     76.79% # Class of executed instruction. (Count)
system.cpu1.exec_context.thread_0.statExecutedInstType::SimdFloatDiv            0      0.00%     76.79% # Class of executed instruction. (Count)
system.cpu1.exec_context.thread_0.statExecutedInstType::SimdFloatMisc            0      0.00%     76.79% # Class of executed instruction. (Count)
system.cpu1.exec_context.thread_0.statExecutedInstType::SimdFloatMult            0      0.00%     76.79% # Class of executed instruction. (Count)
system.cpu1.exec_context.thread_0.statExecutedInstType::SimdFloatMultAcc            0      0.00%     76.79% # Class of executed instruction. (Count)
system.cpu1.exec_context.thread_0.statExecutedInstType::SimdFloatSqrt            0      0.00%     76.79% # Class of executed instruction. (Count)
system.cpu1.exec_context.thread_0.statExecutedInstType::SimdReduceAdd            0      0.00%     76.79% # Class of executed instruction. (Count)
system.cpu1.exec_context.thread_0.statExecutedInstType::SimdReduceAlu            0      0.00%     76.79% # Class of executed instruction. (Count)
system.cpu1.exec_context.thread_0.statExecutedInstType::SimdReduceCmp            0      0.00%     76.79% # Class of executed instruction. (Count)
system.cpu1.exec_context.thread_0.statExecutedInstType::SimdFloatReduceAdd            0      0.00%     76.79% # Class of executed instruction. (Count)
system.cpu1.exec_context.thread_0.statExecutedInstType::SimdFloatReduceCmp            0      0.00%     76.79% # Class of executed instruction. (Count)
system.cpu1.exec_context.thread_0.statExecutedInstType::SimdAes            0      0.00%     76.79% # Class of executed instruction. (Count)
system.cpu1.exec_context.thread_0.statExecutedInstType::SimdAesMix            0      0.00%     76.79% # Class of executed instruction. (Count)
system.cpu1.exec_context.thread_0.statExecutedInstType::SimdSha1Hash            0      0.00%     76.79% # Class of executed instruction. (Count)
system.cpu1.exec_context.thread_0.statExecutedInstType::SimdSha1Hash2            0      0.00%     76.79% # Class of executed instruction. (Count)
system.cpu1.exec_context.thread_0.statExecutedInstType::SimdSha256Hash            0      0.00%     76.79% # Class of executed instruction. (Count)
system.cpu1.exec_context.thread_0.statExecutedInstType::SimdSha256Hash2            0      0.00%     76.79% # Class of executed instruction. (Count)
system.cpu1.exec_context.thread_0.statExecutedInstType::SimdShaSigma2            0      0.00%     76.79% # Class of executed instruction. (Count)
system.cpu1.exec_context.thread_0.statExecutedInstType::SimdShaSigma3            0      0.00%     76.79% # Class of executed instruction. (Count)
system.cpu1.exec_context.thread_0.statExecutedInstType::SimdPredAlu            0      0.00%     76.79% # Class of executed instruction. (Count)
system.cpu1.exec_context.thread_0.statExecutedInstType::MemRead      5209179     14.55%     91.34% # Class of executed instruction. (Count)
system.cpu1.exec_context.thread_0.statExecutedInstType::MemWrite      3101325      8.66%    100.00% # Class of executed instruction. (Count)
system.cpu1.exec_context.thread_0.statExecutedInstType::FloatMemRead          174      0.00%    100.00% # Class of executed instruction. (Count)
system.cpu1.exec_context.thread_0.statExecutedInstType::FloatMemWrite           32      0.00%    100.00% # Class of executed instruction. (Count)
system.cpu1.exec_context.thread_0.statExecutedInstType::IprAccess            0      0.00%    100.00% # Class of executed instruction. (Count)
system.cpu1.exec_context.thread_0.statExecutedInstType::InstPrefetch            0      0.00%    100.00% # Class of executed instruction. (Count)
system.cpu1.exec_context.thread_0.statExecutedInstType::total     35799751                       # Class of executed instruction. (Count)
system.cpu1.interrupts.clk_domain.clock          8000                       # Clock period in ticks (Tick)
system.cpu1.mmu.dtb.rdAccesses                5223899                       # TLB accesses on read requests (Count)
system.cpu1.mmu.dtb.wrAccesses                3109028                       # TLB accesses on write requests (Count)
system.cpu1.mmu.dtb.rdMisses                      117                       # TLB misses on read requests (Count)
system.cpu1.mmu.dtb.wrMisses                       72                       # TLB misses on write requests (Count)
system.cpu1.mmu.dtb.walker.power_state.pwrStateResidencyTicks::UNDEFINED 5050801767500                       # Cumulative time (in ticks) in various power states (Tick)
system.cpu1.mmu.itb.rdAccesses                      0                       # TLB accesses on read requests (Count)
system.cpu1.mmu.itb.wrAccesses               23120145                       # TLB accesses on write requests (Count)
system.cpu1.mmu.itb.rdMisses                        0                       # TLB misses on read requests (Count)
system.cpu1.mmu.itb.wrMisses                      250                       # TLB misses on write requests (Count)
system.cpu1.mmu.itb.walker.power_state.pwrStateResidencyTicks::UNDEFINED 5050801767500                       # Cumulative time (in ticks) in various power states (Tick)
system.cpu1.power_state.numTransitions           6924                       # Number of power state transitions (Count)
system.cpu1.power_state.ticksClkGated::samples         3455                       # Distribution of time spent in the clock gated state
system.cpu1.power_state.ticksClkGated::mean 1350928072.358900                       # Distribution of time spent in the clock gated state
system.cpu1.power_state.ticksClkGated::stdev 1857045634.642519                       # Distribution of time spent in the clock gated state
system.cpu1.power_state.ticksClkGated::1000-5e+10         3455    100.00%    100.00% # Distribution of time spent in the clock gated state
system.cpu1.power_state.ticksClkGated::min_value       548500                       # Distribution of time spent in the clock gated state
system.cpu1.power_state.ticksClkGated::max_value  10001498000                       # Distribution of time spent in the clock gated state
system.cpu1.power_state.ticksClkGated::total         3455                       # Distribution of time spent in the clock gated state
system.cpu1.power_state.pwrStateResidencyTicks::ON 383345277500                       # Cumulative time (in ticks) in various power states (Tick)
system.cpu1.power_state.pwrStateResidencyTicks::CLK_GATED 4667456490000                       # Cumulative time (in ticks) in various power states (Tick)
system.cpu1.thread_0.numInsts                       0                       # Number of Instructions committed (Count)
system.cpu1.thread_0.numOps                         0                       # Number of Ops committed (Count)
system.cpu1.thread_0.numMemRefs                     0                       # Number of Memory References (Count)
system.cpu10.numCycles                    10101493574                       # Number of cpu cycles simulated (Cycle)
system.cpu10.numWorkItemsStarted                    0                       # Number of work items this cpu started (Count)
system.cpu10.numWorkItemsCompleted                  0                       # Number of work items this cpu completed (Count)
system.cpu10.exec_context.thread_0.numInsts      6237859                       # Number of instructions committed (Count)
system.cpu10.exec_context.thread_0.numOps     12264423                       # Number of ops (including micro ops) committed (Count)
system.cpu10.exec_context.thread_0.numIntAluAccesses     12081037                       # Number of integer alu accesses (Count)
system.cpu10.exec_context.thread_0.numFpAluAccesses           48                       # Number of float alu accesses (Count)
system.cpu10.exec_context.thread_0.numVecAluAccesses            0                       # Number of vector alu accesses (Count)
system.cpu10.exec_context.thread_0.numCallsReturns       285573                       # Number of times a function call or return occured (Count)
system.cpu10.exec_context.thread_0.numCondCtrlInsts       866492                       # Number of instructions that are conditional controls (Count)
system.cpu10.exec_context.thread_0.numIntInsts     12081037                       # Number of integer instructions (Count)
system.cpu10.exec_context.thread_0.numFpInsts           48                       # Number of float instructions (Count)
system.cpu10.exec_context.thread_0.numVecInsts            0                       # Number of vector instructions (Count)
system.cpu10.exec_context.thread_0.numIntRegReads     23472104                       # Number of times the integer registers were read (Count)
system.cpu10.exec_context.thread_0.numIntRegWrites     10088871                       # Number of times the integer registers were written (Count)
system.cpu10.exec_context.thread_0.numFpRegReads           48                       # Number of times the floating registers were read (Count)
system.cpu10.exec_context.thread_0.numFpRegWrites            0                       # Number of times the floating registers were written (Count)
system.cpu10.exec_context.thread_0.numVecRegReads            0                       # Number of times the vector registers were read (Count)
system.cpu10.exec_context.thread_0.numVecRegWrites            0                       # Number of times the vector registers were written (Count)
system.cpu10.exec_context.thread_0.numVecPredRegReads            0                       # Number of times the predicate registers were read (Count)
system.cpu10.exec_context.thread_0.numVecPredRegWrites            0                       # Number of times the predicate registers were written (Count)
system.cpu10.exec_context.thread_0.numCCRegReads      8061872                       # Number of times the CC registers were read (Count)
system.cpu10.exec_context.thread_0.numCCRegWrites      4337537                       # Number of times the CC registers were written (Count)
system.cpu10.exec_context.thread_0.numMemRefs      2499367                       # Number of memory refs (Count)
system.cpu10.exec_context.thread_0.numLoadInsts      1720872                       # Number of load instructions (Count)
system.cpu10.exec_context.thread_0.numStoreInsts       778495                       # Number of store instructions (Count)
system.cpu10.exec_context.thread_0.numIdleCycles 10075298024.154753                       # Number of idle cycles (Cycle)
system.cpu10.exec_context.thread_0.numBusyCycles 26195549.845247                       # Number of busy cycles (Cycle)
system.cpu10.exec_context.thread_0.notIdleFraction     0.002593                       # Percentage of non-idle cycles (Ratio)
system.cpu10.exec_context.thread_0.idleFraction     0.997407                       # Percentage of idle cycles (Ratio)
system.cpu10.exec_context.thread_0.numBranches      1280297                       # Number of branches fetched (Count)
system.cpu10.exec_context.thread_0.statExecutedInstType::No_OpClass        63466      0.52%      0.52% # Class of executed instruction. (Count)
system.cpu10.exec_context.thread_0.statExecutedInstType::IntAlu      9673873     78.88%     79.40% # Class of executed instruction. (Count)
system.cpu10.exec_context.thread_0.statExecutedInstType::IntMult        29775      0.24%     79.64% # Class of executed instruction. (Count)
system.cpu10.exec_context.thread_0.statExecutedInstType::IntDiv          422      0.00%     79.64% # Class of executed instruction. (Count)
system.cpu10.exec_context.thread_0.statExecutedInstType::FloatAdd            0      0.00%     79.64% # Class of executed instruction. (Count)
system.cpu10.exec_context.thread_0.statExecutedInstType::FloatCmp            0      0.00%     79.64% # Class of executed instruction. (Count)
system.cpu10.exec_context.thread_0.statExecutedInstType::FloatCvt           16      0.00%     79.64% # Class of executed instruction. (Count)
system.cpu10.exec_context.thread_0.statExecutedInstType::FloatMult            0      0.00%     79.64% # Class of executed instruction. (Count)
system.cpu10.exec_context.thread_0.statExecutedInstType::FloatMultAcc            0      0.00%     79.64% # Class of executed instruction. (Count)
system.cpu10.exec_context.thread_0.statExecutedInstType::FloatDiv            0      0.00%     79.64% # Class of executed instruction. (Count)
system.cpu10.exec_context.thread_0.statExecutedInstType::FloatMisc            0      0.00%     79.64% # Class of executed instruction. (Count)
system.cpu10.exec_context.thread_0.statExecutedInstType::FloatSqrt            0      0.00%     79.64% # Class of executed instruction. (Count)
system.cpu10.exec_context.thread_0.statExecutedInstType::SimdAdd            0      0.00%     79.64% # Class of executed instruction. (Count)
system.cpu10.exec_context.thread_0.statExecutedInstType::SimdAddAcc            0      0.00%     79.64% # Class of executed instruction. (Count)
system.cpu10.exec_context.thread_0.statExecutedInstType::SimdAlu            0      0.00%     79.64% # Class of executed instruction. (Count)
system.cpu10.exec_context.thread_0.statExecutedInstType::SimdCmp            0      0.00%     79.64% # Class of executed instruction. (Count)
system.cpu10.exec_context.thread_0.statExecutedInstType::SimdCvt            0      0.00%     79.64% # Class of executed instruction. (Count)
system.cpu10.exec_context.thread_0.statExecutedInstType::SimdMisc            0      0.00%     79.64% # Class of executed instruction. (Count)
system.cpu10.exec_context.thread_0.statExecutedInstType::SimdMult            0      0.00%     79.64% # Class of executed instruction. (Count)
system.cpu10.exec_context.thread_0.statExecutedInstType::SimdMultAcc            0      0.00%     79.64% # Class of executed instruction. (Count)
system.cpu10.exec_context.thread_0.statExecutedInstType::SimdShift            0      0.00%     79.64% # Class of executed instruction. (Count)
system.cpu10.exec_context.thread_0.statExecutedInstType::SimdShiftAcc            0      0.00%     79.64% # Class of executed instruction. (Count)
system.cpu10.exec_context.thread_0.statExecutedInstType::SimdDiv            0      0.00%     79.64% # Class of executed instruction. (Count)
system.cpu10.exec_context.thread_0.statExecutedInstType::SimdSqrt            0      0.00%     79.64% # Class of executed instruction. (Count)
system.cpu10.exec_context.thread_0.statExecutedInstType::SimdFloatAdd            0      0.00%     79.64% # Class of executed instruction. (Count)
system.cpu10.exec_context.thread_0.statExecutedInstType::SimdFloatAlu            0      0.00%     79.64% # Class of executed instruction. (Count)
system.cpu10.exec_context.thread_0.statExecutedInstType::SimdFloatCmp            0      0.00%     79.64% # Class of executed instruction. (Count)
system.cpu10.exec_context.thread_0.statExecutedInstType::SimdFloatCvt            0      0.00%     79.64% # Class of executed instruction. (Count)
system.cpu10.exec_context.thread_0.statExecutedInstType::SimdFloatDiv            0      0.00%     79.64% # Class of executed instruction. (Count)
system.cpu10.exec_context.thread_0.statExecutedInstType::SimdFloatMisc            0      0.00%     79.64% # Class of executed instruction. (Count)
system.cpu10.exec_context.thread_0.statExecutedInstType::SimdFloatMult            0      0.00%     79.64% # Class of executed instruction. (Count)
system.cpu10.exec_context.thread_0.statExecutedInstType::SimdFloatMultAcc            0      0.00%     79.64% # Class of executed instruction. (Count)
system.cpu10.exec_context.thread_0.statExecutedInstType::SimdFloatSqrt            0      0.00%     79.64% # Class of executed instruction. (Count)
system.cpu10.exec_context.thread_0.statExecutedInstType::SimdReduceAdd            0      0.00%     79.64% # Class of executed instruction. (Count)
system.cpu10.exec_context.thread_0.statExecutedInstType::SimdReduceAlu            0      0.00%     79.64% # Class of executed instruction. (Count)
system.cpu10.exec_context.thread_0.statExecutedInstType::SimdReduceCmp            0      0.00%     79.64% # Class of executed instruction. (Count)
system.cpu10.exec_context.thread_0.statExecutedInstType::SimdFloatReduceAdd            0      0.00%     79.64% # Class of executed instruction. (Count)
system.cpu10.exec_context.thread_0.statExecutedInstType::SimdFloatReduceCmp            0      0.00%     79.64% # Class of executed instruction. (Count)
system.cpu10.exec_context.thread_0.statExecutedInstType::SimdAes            0      0.00%     79.64% # Class of executed instruction. (Count)
system.cpu10.exec_context.thread_0.statExecutedInstType::SimdAesMix            0      0.00%     79.64% # Class of executed instruction. (Count)
system.cpu10.exec_context.thread_0.statExecutedInstType::SimdSha1Hash            0      0.00%     79.64% # Class of executed instruction. (Count)
system.cpu10.exec_context.thread_0.statExecutedInstType::SimdSha1Hash2            0      0.00%     79.64% # Class of executed instruction. (Count)
system.cpu10.exec_context.thread_0.statExecutedInstType::SimdSha256Hash            0      0.00%     79.64% # Class of executed instruction. (Count)
system.cpu10.exec_context.thread_0.statExecutedInstType::SimdSha256Hash2            0      0.00%     79.64% # Class of executed instruction. (Count)
system.cpu10.exec_context.thread_0.statExecutedInstType::SimdShaSigma2            0      0.00%     79.64% # Class of executed instruction. (Count)
system.cpu10.exec_context.thread_0.statExecutedInstType::SimdShaSigma3            0      0.00%     79.64% # Class of executed instruction. (Count)
system.cpu10.exec_context.thread_0.statExecutedInstType::SimdPredAlu            0      0.00%     79.64% # Class of executed instruction. (Count)
system.cpu10.exec_context.thread_0.statExecutedInstType::MemRead      1718376     14.01%     93.65% # Class of executed instruction. (Count)
system.cpu10.exec_context.thread_0.statExecutedInstType::MemWrite       778463      6.35%    100.00% # Class of executed instruction. (Count)
system.cpu10.exec_context.thread_0.statExecutedInstType::FloatMemRead            0      0.00%    100.00% # Class of executed instruction. (Count)
system.cpu10.exec_context.thread_0.statExecutedInstType::FloatMemWrite           32      0.00%    100.00% # Class of executed instruction. (Count)
system.cpu10.exec_context.thread_0.statExecutedInstType::IprAccess            0      0.00%    100.00% # Class of executed instruction. (Count)
system.cpu10.exec_context.thread_0.statExecutedInstType::InstPrefetch            0      0.00%    100.00% # Class of executed instruction. (Count)
system.cpu10.exec_context.thread_0.statExecutedInstType::total     12264423                       # Class of executed instruction. (Count)
system.cpu10.interrupts.clk_domain.clock         8000                       # Clock period in ticks (Tick)
system.cpu10.mmu.dtb.rdAccesses               1724483                       # TLB accesses on read requests (Count)
system.cpu10.mmu.dtb.wrAccesses                782102                       # TLB accesses on write requests (Count)
system.cpu10.mmu.dtb.rdMisses                      20                       # TLB misses on read requests (Count)
system.cpu10.mmu.dtb.wrMisses                       3                       # TLB misses on write requests (Count)
system.cpu10.mmu.dtb.walker.power_state.pwrStateResidencyTicks::UNDEFINED 5050801767500                       # Cumulative time (in ticks) in various power states (Tick)
system.cpu10.mmu.itb.rdAccesses                     0                       # TLB accesses on read requests (Count)
system.cpu10.mmu.itb.wrAccesses               8531135                       # TLB accesses on write requests (Count)
system.cpu10.mmu.itb.rdMisses                       0                       # TLB misses on read requests (Count)
system.cpu10.mmu.itb.wrMisses                       8                       # TLB misses on write requests (Count)
system.cpu10.mmu.itb.walker.power_state.pwrStateResidencyTicks::UNDEFINED 5050801767500                       # Cumulative time (in ticks) in various power states (Tick)
system.cpu10.power_state.numTransitions          2498                       # Number of power state transitions (Count)
system.cpu10.power_state.ticksClkGated::samples         1250                       # Distribution of time spent in the clock gated state
system.cpu10.power_state.ticksClkGated::mean 3671428396.400000                       # Distribution of time spent in the clock gated state
system.cpu10.power_state.ticksClkGated::stdev 1066707325.149002                       # Distribution of time spent in the clock gated state
system.cpu10.power_state.ticksClkGated::1000-5e+10         1250    100.00%    100.00% # Distribution of time spent in the clock gated state
system.cpu10.power_state.ticksClkGated::min_value       667000                       # Distribution of time spent in the clock gated state
system.cpu10.power_state.ticksClkGated::max_value  10001330000                       # Distribution of time spent in the clock gated state
system.cpu10.power_state.ticksClkGated::total         1250                       # Distribution of time spent in the clock gated state
system.cpu10.power_state.pwrStateResidencyTicks::ON 461516272000                       # Cumulative time (in ticks) in various power states (Tick)
system.cpu10.power_state.pwrStateResidencyTicks::CLK_GATED 4589285495500                       # Cumulative time (in ticks) in various power states (Tick)
system.cpu10.thread_0.numInsts                      0                       # Number of Instructions committed (Count)
system.cpu10.thread_0.numOps                        0                       # Number of Ops committed (Count)
system.cpu10.thread_0.numMemRefs                    0                       # Number of Memory References (Count)
system.cpu11.numCycles                    10101006653                       # Number of cpu cycles simulated (Cycle)
system.cpu11.numWorkItemsStarted                    0                       # Number of work items this cpu started (Count)
system.cpu11.numWorkItemsCompleted                  0                       # Number of work items this cpu completed (Count)
system.cpu11.exec_context.thread_0.numInsts      6234151                       # Number of instructions committed (Count)
system.cpu11.exec_context.thread_0.numOps     12256681                       # Number of ops (including micro ops) committed (Count)
system.cpu11.exec_context.thread_0.numIntAluAccesses     12073406                       # Number of integer alu accesses (Count)
system.cpu11.exec_context.thread_0.numFpAluAccesses           48                       # Number of float alu accesses (Count)
system.cpu11.exec_context.thread_0.numVecAluAccesses            0                       # Number of vector alu accesses (Count)
system.cpu11.exec_context.thread_0.numCallsReturns       285299                       # Number of times a function call or return occured (Count)
system.cpu11.exec_context.thread_0.numCondCtrlInsts       866118                       # Number of instructions that are conditional controls (Count)
system.cpu11.exec_context.thread_0.numIntInsts     12073406                       # Number of integer instructions (Count)
system.cpu11.exec_context.thread_0.numFpInsts           48                       # Number of float instructions (Count)
system.cpu11.exec_context.thread_0.numVecInsts            0                       # Number of vector instructions (Count)
system.cpu11.exec_context.thread_0.numIntRegReads     23456749                       # Number of times the integer registers were read (Count)
system.cpu11.exec_context.thread_0.numIntRegWrites     10082692                       # Number of times the integer registers were written (Count)
system.cpu11.exec_context.thread_0.numFpRegReads           48                       # Number of times the floating registers were read (Count)
system.cpu11.exec_context.thread_0.numFpRegWrites            0                       # Number of times the floating registers were written (Count)
system.cpu11.exec_context.thread_0.numVecRegReads            0                       # Number of times the vector registers were read (Count)
system.cpu11.exec_context.thread_0.numVecRegWrites            0                       # Number of times the vector registers were written (Count)
system.cpu11.exec_context.thread_0.numVecPredRegReads            0                       # Number of times the predicate registers were read (Count)
system.cpu11.exec_context.thread_0.numVecPredRegWrites            0                       # Number of times the predicate registers were written (Count)
system.cpu11.exec_context.thread_0.numCCRegReads      8058517                       # Number of times the CC registers were read (Count)
system.cpu11.exec_context.thread_0.numCCRegWrites      4335274                       # Number of times the CC registers were written (Count)
system.cpu11.exec_context.thread_0.numMemRefs      2497331                       # Number of memory refs (Count)
system.cpu11.exec_context.thread_0.numLoadInsts      1719555                       # Number of load instructions (Count)
system.cpu11.exec_context.thread_0.numStoreInsts       777776                       # Number of store instructions (Count)
system.cpu11.exec_context.thread_0.numIdleCycles 10074803059.405416                       # Number of idle cycles (Cycle)
system.cpu11.exec_context.thread_0.numBusyCycles 26203593.594584                       # Number of busy cycles (Cycle)
system.cpu11.exec_context.thread_0.notIdleFraction     0.002594                       # Percentage of non-idle cycles (Ratio)
system.cpu11.exec_context.thread_0.idleFraction     0.997406                       # Percentage of idle cycles (Ratio)
system.cpu11.exec_context.thread_0.numBranches      1279556                       # Number of branches fetched (Count)
system.cpu11.exec_context.thread_0.statExecutedInstType::No_OpClass        63419      0.52%      0.52% # Class of executed instruction. (Count)
system.cpu11.exec_context.thread_0.statExecutedInstType::IntAlu      9668209     78.88%     79.40% # Class of executed instruction. (Count)
system.cpu11.exec_context.thread_0.statExecutedInstType::IntMult        29748      0.24%     79.64% # Class of executed instruction. (Count)
system.cpu11.exec_context.thread_0.statExecutedInstType::IntDiv          450      0.00%     79.64% # Class of executed instruction. (Count)
system.cpu11.exec_context.thread_0.statExecutedInstType::FloatAdd            0      0.00%     79.64% # Class of executed instruction. (Count)
system.cpu11.exec_context.thread_0.statExecutedInstType::FloatCmp            0      0.00%     79.64% # Class of executed instruction. (Count)
system.cpu11.exec_context.thread_0.statExecutedInstType::FloatCvt           16      0.00%     79.65% # Class of executed instruction. (Count)
system.cpu11.exec_context.thread_0.statExecutedInstType::FloatMult            0      0.00%     79.65% # Class of executed instruction. (Count)
system.cpu11.exec_context.thread_0.statExecutedInstType::FloatMultAcc            0      0.00%     79.65% # Class of executed instruction. (Count)
system.cpu11.exec_context.thread_0.statExecutedInstType::FloatDiv            0      0.00%     79.65% # Class of executed instruction. (Count)
system.cpu11.exec_context.thread_0.statExecutedInstType::FloatMisc            0      0.00%     79.65% # Class of executed instruction. (Count)
system.cpu11.exec_context.thread_0.statExecutedInstType::FloatSqrt            0      0.00%     79.65% # Class of executed instruction. (Count)
system.cpu11.exec_context.thread_0.statExecutedInstType::SimdAdd            0      0.00%     79.65% # Class of executed instruction. (Count)
system.cpu11.exec_context.thread_0.statExecutedInstType::SimdAddAcc            0      0.00%     79.65% # Class of executed instruction. (Count)
system.cpu11.exec_context.thread_0.statExecutedInstType::SimdAlu            0      0.00%     79.65% # Class of executed instruction. (Count)
system.cpu11.exec_context.thread_0.statExecutedInstType::SimdCmp            0      0.00%     79.65% # Class of executed instruction. (Count)
system.cpu11.exec_context.thread_0.statExecutedInstType::SimdCvt            0      0.00%     79.65% # Class of executed instruction. (Count)
system.cpu11.exec_context.thread_0.statExecutedInstType::SimdMisc            0      0.00%     79.65% # Class of executed instruction. (Count)
system.cpu11.exec_context.thread_0.statExecutedInstType::SimdMult            0      0.00%     79.65% # Class of executed instruction. (Count)
system.cpu11.exec_context.thread_0.statExecutedInstType::SimdMultAcc            0      0.00%     79.65% # Class of executed instruction. (Count)
system.cpu11.exec_context.thread_0.statExecutedInstType::SimdShift            0      0.00%     79.65% # Class of executed instruction. (Count)
system.cpu11.exec_context.thread_0.statExecutedInstType::SimdShiftAcc            0      0.00%     79.65% # Class of executed instruction. (Count)
system.cpu11.exec_context.thread_0.statExecutedInstType::SimdDiv            0      0.00%     79.65% # Class of executed instruction. (Count)
system.cpu11.exec_context.thread_0.statExecutedInstType::SimdSqrt            0      0.00%     79.65% # Class of executed instruction. (Count)
system.cpu11.exec_context.thread_0.statExecutedInstType::SimdFloatAdd            0      0.00%     79.65% # Class of executed instruction. (Count)
system.cpu11.exec_context.thread_0.statExecutedInstType::SimdFloatAlu            0      0.00%     79.65% # Class of executed instruction. (Count)
system.cpu11.exec_context.thread_0.statExecutedInstType::SimdFloatCmp            0      0.00%     79.65% # Class of executed instruction. (Count)
system.cpu11.exec_context.thread_0.statExecutedInstType::SimdFloatCvt            0      0.00%     79.65% # Class of executed instruction. (Count)
system.cpu11.exec_context.thread_0.statExecutedInstType::SimdFloatDiv            0      0.00%     79.65% # Class of executed instruction. (Count)
system.cpu11.exec_context.thread_0.statExecutedInstType::SimdFloatMisc            0      0.00%     79.65% # Class of executed instruction. (Count)
system.cpu11.exec_context.thread_0.statExecutedInstType::SimdFloatMult            0      0.00%     79.65% # Class of executed instruction. (Count)
system.cpu11.exec_context.thread_0.statExecutedInstType::SimdFloatMultAcc            0      0.00%     79.65% # Class of executed instruction. (Count)
system.cpu11.exec_context.thread_0.statExecutedInstType::SimdFloatSqrt            0      0.00%     79.65% # Class of executed instruction. (Count)
system.cpu11.exec_context.thread_0.statExecutedInstType::SimdReduceAdd            0      0.00%     79.65% # Class of executed instruction. (Count)
system.cpu11.exec_context.thread_0.statExecutedInstType::SimdReduceAlu            0      0.00%     79.65% # Class of executed instruction. (Count)
system.cpu11.exec_context.thread_0.statExecutedInstType::SimdReduceCmp            0      0.00%     79.65% # Class of executed instruction. (Count)
system.cpu11.exec_context.thread_0.statExecutedInstType::SimdFloatReduceAdd            0      0.00%     79.65% # Class of executed instruction. (Count)
system.cpu11.exec_context.thread_0.statExecutedInstType::SimdFloatReduceCmp            0      0.00%     79.65% # Class of executed instruction. (Count)
system.cpu11.exec_context.thread_0.statExecutedInstType::SimdAes            0      0.00%     79.65% # Class of executed instruction. (Count)
system.cpu11.exec_context.thread_0.statExecutedInstType::SimdAesMix            0      0.00%     79.65% # Class of executed instruction. (Count)
system.cpu11.exec_context.thread_0.statExecutedInstType::SimdSha1Hash            0      0.00%     79.65% # Class of executed instruction. (Count)
system.cpu11.exec_context.thread_0.statExecutedInstType::SimdSha1Hash2            0      0.00%     79.65% # Class of executed instruction. (Count)
system.cpu11.exec_context.thread_0.statExecutedInstType::SimdSha256Hash            0      0.00%     79.65% # Class of executed instruction. (Count)
system.cpu11.exec_context.thread_0.statExecutedInstType::SimdSha256Hash2            0      0.00%     79.65% # Class of executed instruction. (Count)
system.cpu11.exec_context.thread_0.statExecutedInstType::SimdShaSigma2            0      0.00%     79.65% # Class of executed instruction. (Count)
system.cpu11.exec_context.thread_0.statExecutedInstType::SimdShaSigma3            0      0.00%     79.65% # Class of executed instruction. (Count)
system.cpu11.exec_context.thread_0.statExecutedInstType::SimdPredAlu            0      0.00%     79.65% # Class of executed instruction. (Count)
system.cpu11.exec_context.thread_0.statExecutedInstType::MemRead      1717063     14.01%     93.65% # Class of executed instruction. (Count)
system.cpu11.exec_context.thread_0.statExecutedInstType::MemWrite       777744      6.35%    100.00% # Class of executed instruction. (Count)
system.cpu11.exec_context.thread_0.statExecutedInstType::FloatMemRead            0      0.00%    100.00% # Class of executed instruction. (Count)
system.cpu11.exec_context.thread_0.statExecutedInstType::FloatMemWrite           32      0.00%    100.00% # Class of executed instruction. (Count)
system.cpu11.exec_context.thread_0.statExecutedInstType::IprAccess            0      0.00%    100.00% # Class of executed instruction. (Count)
system.cpu11.exec_context.thread_0.statExecutedInstType::InstPrefetch            0      0.00%    100.00% # Class of executed instruction. (Count)
system.cpu11.exec_context.thread_0.statExecutedInstType::total     12256681                       # Class of executed instruction. (Count)
system.cpu11.interrupts.clk_domain.clock         8000                       # Clock period in ticks (Tick)
system.cpu11.mmu.dtb.rdAccesses               1723159                       # TLB accesses on read requests (Count)
system.cpu11.mmu.dtb.wrAccesses                781376                       # TLB accesses on write requests (Count)
system.cpu11.mmu.dtb.rdMisses                      20                       # TLB misses on read requests (Count)
system.cpu11.mmu.dtb.wrMisses                       3                       # TLB misses on write requests (Count)
system.cpu11.mmu.dtb.walker.power_state.pwrStateResidencyTicks::UNDEFINED 5050801767500                       # Cumulative time (in ticks) in various power states (Tick)
system.cpu11.mmu.itb.rdAccesses                     0                       # TLB accesses on read requests (Count)
system.cpu11.mmu.itb.wrAccesses               8526170                       # TLB accesses on write requests (Count)
system.cpu11.mmu.itb.rdMisses                       0                       # TLB misses on read requests (Count)
system.cpu11.mmu.itb.wrMisses                       8                       # TLB misses on write requests (Count)
system.cpu11.mmu.itb.walker.power_state.pwrStateResidencyTicks::UNDEFINED 5050801767500                       # Cumulative time (in ticks) in various power states (Tick)
system.cpu11.power_state.numTransitions          2494                       # Number of power state transitions (Count)
system.cpu11.power_state.ticksClkGated::samples         1248                       # Distribution of time spent in the clock gated state
system.cpu11.power_state.ticksClkGated::mean 3667889771.634615                       # Distribution of time spent in the clock gated state
system.cpu11.power_state.ticksClkGated::stdev 1071253989.273603                       # Distribution of time spent in the clock gated state
system.cpu11.power_state.ticksClkGated::1000-5e+10         1248    100.00%    100.00% # Distribution of time spent in the clock gated state
system.cpu11.power_state.ticksClkGated::min_value       667000                       # Distribution of time spent in the clock gated state
system.cpu11.power_state.ticksClkGated::max_value  10001274000                       # Distribution of time spent in the clock gated state
system.cpu11.power_state.ticksClkGated::total         1248                       # Distribution of time spent in the clock gated state
system.cpu11.power_state.pwrStateResidencyTicks::ON 473275332500                       # Cumulative time (in ticks) in various power states (Tick)
system.cpu11.power_state.pwrStateResidencyTicks::CLK_GATED 4577526435000                       # Cumulative time (in ticks) in various power states (Tick)
system.cpu11.thread_0.numInsts                      0                       # Number of Instructions committed (Count)
system.cpu11.thread_0.numOps                        0                       # Number of Ops committed (Count)
system.cpu11.thread_0.numMemRefs                    0                       # Number of Memory References (Count)
system.cpu12.numCycles                    10100536654                       # Number of cpu cycles simulated (Cycle)
system.cpu12.numWorkItemsStarted                    0                       # Number of work items this cpu started (Count)
system.cpu12.numWorkItemsCompleted                  0                       # Number of work items this cpu completed (Count)
system.cpu12.exec_context.thread_0.numInsts      6229917                       # Number of instructions committed (Count)
system.cpu12.exec_context.thread_0.numOps     12248002                       # Number of ops (including micro ops) committed (Count)
system.cpu12.exec_context.thread_0.numIntAluAccesses     12064825                       # Number of integer alu accesses (Count)
system.cpu12.exec_context.thread_0.numFpAluAccesses           48                       # Number of float alu accesses (Count)
system.cpu12.exec_context.thread_0.numVecAluAccesses            0                       # Number of vector alu accesses (Count)
system.cpu12.exec_context.thread_0.numCallsReturns       285005                       # Number of times a function call or return occured (Count)
system.cpu12.exec_context.thread_0.numCondCtrlInsts       865706                       # Number of instructions that are conditional controls (Count)
system.cpu12.exec_context.thread_0.numIntInsts     12064825                       # Number of integer instructions (Count)
system.cpu12.exec_context.thread_0.numFpInsts           48                       # Number of float instructions (Count)
system.cpu12.exec_context.thread_0.numVecInsts            0                       # Number of vector instructions (Count)
system.cpu12.exec_context.thread_0.numIntRegReads     23439350                       # Number of times the integer registers were read (Count)
system.cpu12.exec_context.thread_0.numIntRegWrites     10075658                       # Number of times the integer registers were written (Count)
system.cpu12.exec_context.thread_0.numFpRegReads           48                       # Number of times the floating registers were read (Count)
system.cpu12.exec_context.thread_0.numFpRegWrites            0                       # Number of times the floating registers were written (Count)
system.cpu12.exec_context.thread_0.numVecRegReads            0                       # Number of times the vector registers were read (Count)
system.cpu12.exec_context.thread_0.numVecRegWrites            0                       # Number of times the vector registers were written (Count)
system.cpu12.exec_context.thread_0.numVecPredRegReads            0                       # Number of times the predicate registers were read (Count)
system.cpu12.exec_context.thread_0.numVecPredRegWrites            0                       # Number of times the predicate registers were written (Count)
system.cpu12.exec_context.thread_0.numCCRegReads      8054828                       # Number of times the CC registers were read (Count)
system.cpu12.exec_context.thread_0.numCCRegWrites      4332631                       # Number of times the CC registers were written (Count)
system.cpu12.exec_context.thread_0.numMemRefs      2495116                       # Number of memory refs (Count)
system.cpu12.exec_context.thread_0.numLoadInsts      1718161                       # Number of load instructions (Count)
system.cpu12.exec_context.thread_0.numStoreInsts       776955                       # Number of store instructions (Count)
system.cpu12.exec_context.thread_0.numIdleCycles 10074381319.687790                       # Number of idle cycles (Cycle)
system.cpu12.exec_context.thread_0.numBusyCycles 26155334.312211                       # Number of busy cycles (Cycle)
system.cpu12.exec_context.thread_0.notIdleFraction     0.002589                       # Percentage of non-idle cycles (Ratio)
system.cpu12.exec_context.thread_0.idleFraction     0.997411                       # Percentage of idle cycles (Ratio)
system.cpu12.exec_context.thread_0.numBranches      1278742                       # Number of branches fetched (Count)
system.cpu12.exec_context.thread_0.statExecutedInstType::No_OpClass        63367      0.52%      0.52% # Class of executed instruction. (Count)
system.cpu12.exec_context.thread_0.statExecutedInstType::IntAlu      9661832     78.88%     79.40% # Class of executed instruction. (Count)
system.cpu12.exec_context.thread_0.statExecutedInstType::IntMult        29714      0.24%     79.64% # Class of executed instruction. (Count)
system.cpu12.exec_context.thread_0.statExecutedInstType::IntDiv          443      0.00%     79.65% # Class of executed instruction. (Count)
system.cpu12.exec_context.thread_0.statExecutedInstType::FloatAdd            0      0.00%     79.65% # Class of executed instruction. (Count)
system.cpu12.exec_context.thread_0.statExecutedInstType::FloatCmp            0      0.00%     79.65% # Class of executed instruction. (Count)
system.cpu12.exec_context.thread_0.statExecutedInstType::FloatCvt           16      0.00%     79.65% # Class of executed instruction. (Count)
system.cpu12.exec_context.thread_0.statExecutedInstType::FloatMult            0      0.00%     79.65% # Class of executed instruction. (Count)
system.cpu12.exec_context.thread_0.statExecutedInstType::FloatMultAcc            0      0.00%     79.65% # Class of executed instruction. (Count)
system.cpu12.exec_context.thread_0.statExecutedInstType::FloatDiv            0      0.00%     79.65% # Class of executed instruction. (Count)
system.cpu12.exec_context.thread_0.statExecutedInstType::FloatMisc            0      0.00%     79.65% # Class of executed instruction. (Count)
system.cpu12.exec_context.thread_0.statExecutedInstType::FloatSqrt            0      0.00%     79.65% # Class of executed instruction. (Count)
system.cpu12.exec_context.thread_0.statExecutedInstType::SimdAdd            0      0.00%     79.65% # Class of executed instruction. (Count)
system.cpu12.exec_context.thread_0.statExecutedInstType::SimdAddAcc            0      0.00%     79.65% # Class of executed instruction. (Count)
system.cpu12.exec_context.thread_0.statExecutedInstType::SimdAlu            0      0.00%     79.65% # Class of executed instruction. (Count)
system.cpu12.exec_context.thread_0.statExecutedInstType::SimdCmp            0      0.00%     79.65% # Class of executed instruction. (Count)
system.cpu12.exec_context.thread_0.statExecutedInstType::SimdCvt            0      0.00%     79.65% # Class of executed instruction. (Count)
system.cpu12.exec_context.thread_0.statExecutedInstType::SimdMisc            0      0.00%     79.65% # Class of executed instruction. (Count)
system.cpu12.exec_context.thread_0.statExecutedInstType::SimdMult            0      0.00%     79.65% # Class of executed instruction. (Count)
system.cpu12.exec_context.thread_0.statExecutedInstType::SimdMultAcc            0      0.00%     79.65% # Class of executed instruction. (Count)
system.cpu12.exec_context.thread_0.statExecutedInstType::SimdShift            0      0.00%     79.65% # Class of executed instruction. (Count)
system.cpu12.exec_context.thread_0.statExecutedInstType::SimdShiftAcc            0      0.00%     79.65% # Class of executed instruction. (Count)
system.cpu12.exec_context.thread_0.statExecutedInstType::SimdDiv            0      0.00%     79.65% # Class of executed instruction. (Count)
system.cpu12.exec_context.thread_0.statExecutedInstType::SimdSqrt            0      0.00%     79.65% # Class of executed instruction. (Count)
system.cpu12.exec_context.thread_0.statExecutedInstType::SimdFloatAdd            0      0.00%     79.65% # Class of executed instruction. (Count)
system.cpu12.exec_context.thread_0.statExecutedInstType::SimdFloatAlu            0      0.00%     79.65% # Class of executed instruction. (Count)
system.cpu12.exec_context.thread_0.statExecutedInstType::SimdFloatCmp            0      0.00%     79.65% # Class of executed instruction. (Count)
system.cpu12.exec_context.thread_0.statExecutedInstType::SimdFloatCvt            0      0.00%     79.65% # Class of executed instruction. (Count)
system.cpu12.exec_context.thread_0.statExecutedInstType::SimdFloatDiv            0      0.00%     79.65% # Class of executed instruction. (Count)
system.cpu12.exec_context.thread_0.statExecutedInstType::SimdFloatMisc            0      0.00%     79.65% # Class of executed instruction. (Count)
system.cpu12.exec_context.thread_0.statExecutedInstType::SimdFloatMult            0      0.00%     79.65% # Class of executed instruction. (Count)
system.cpu12.exec_context.thread_0.statExecutedInstType::SimdFloatMultAcc            0      0.00%     79.65% # Class of executed instruction. (Count)
system.cpu12.exec_context.thread_0.statExecutedInstType::SimdFloatSqrt            0      0.00%     79.65% # Class of executed instruction. (Count)
system.cpu12.exec_context.thread_0.statExecutedInstType::SimdReduceAdd            0      0.00%     79.65% # Class of executed instruction. (Count)
system.cpu12.exec_context.thread_0.statExecutedInstType::SimdReduceAlu            0      0.00%     79.65% # Class of executed instruction. (Count)
system.cpu12.exec_context.thread_0.statExecutedInstType::SimdReduceCmp            0      0.00%     79.65% # Class of executed instruction. (Count)
system.cpu12.exec_context.thread_0.statExecutedInstType::SimdFloatReduceAdd            0      0.00%     79.65% # Class of executed instruction. (Count)
system.cpu12.exec_context.thread_0.statExecutedInstType::SimdFloatReduceCmp            0      0.00%     79.65% # Class of executed instruction. (Count)
system.cpu12.exec_context.thread_0.statExecutedInstType::SimdAes            0      0.00%     79.65% # Class of executed instruction. (Count)
system.cpu12.exec_context.thread_0.statExecutedInstType::SimdAesMix            0      0.00%     79.65% # Class of executed instruction. (Count)
system.cpu12.exec_context.thread_0.statExecutedInstType::SimdSha1Hash            0      0.00%     79.65% # Class of executed instruction. (Count)
system.cpu12.exec_context.thread_0.statExecutedInstType::SimdSha1Hash2            0      0.00%     79.65% # Class of executed instruction. (Count)
system.cpu12.exec_context.thread_0.statExecutedInstType::SimdSha256Hash            0      0.00%     79.65% # Class of executed instruction. (Count)
system.cpu12.exec_context.thread_0.statExecutedInstType::SimdSha256Hash2            0      0.00%     79.65% # Class of executed instruction. (Count)
system.cpu12.exec_context.thread_0.statExecutedInstType::SimdShaSigma2            0      0.00%     79.65% # Class of executed instruction. (Count)
system.cpu12.exec_context.thread_0.statExecutedInstType::SimdShaSigma3            0      0.00%     79.65% # Class of executed instruction. (Count)
system.cpu12.exec_context.thread_0.statExecutedInstType::SimdPredAlu            0      0.00%     79.65% # Class of executed instruction. (Count)
system.cpu12.exec_context.thread_0.statExecutedInstType::MemRead      1715675     14.01%     93.66% # Class of executed instruction. (Count)
system.cpu12.exec_context.thread_0.statExecutedInstType::MemWrite       776923      6.34%    100.00% # Class of executed instruction. (Count)
system.cpu12.exec_context.thread_0.statExecutedInstType::FloatMemRead            0      0.00%    100.00% # Class of executed instruction. (Count)
system.cpu12.exec_context.thread_0.statExecutedInstType::FloatMemWrite           32      0.00%    100.00% # Class of executed instruction. (Count)
system.cpu12.exec_context.thread_0.statExecutedInstType::IprAccess            0      0.00%    100.00% # Class of executed instruction. (Count)
system.cpu12.exec_context.thread_0.statExecutedInstType::InstPrefetch            0      0.00%    100.00% # Class of executed instruction. (Count)
system.cpu12.exec_context.thread_0.statExecutedInstType::total     12248002                       # Class of executed instruction. (Count)
system.cpu12.interrupts.clk_domain.clock         8000                       # Clock period in ticks (Tick)
system.cpu12.mmu.dtb.rdAccesses               1721755                       # TLB accesses on read requests (Count)
system.cpu12.mmu.dtb.wrAccesses                780546                       # TLB accesses on write requests (Count)
system.cpu12.mmu.dtb.rdMisses                      19                       # TLB misses on read requests (Count)
system.cpu12.mmu.dtb.wrMisses                       3                       # TLB misses on write requests (Count)
system.cpu12.mmu.dtb.walker.power_state.pwrStateResidencyTicks::UNDEFINED 5050801767500                       # Cumulative time (in ticks) in various power states (Tick)
system.cpu12.mmu.itb.rdAccesses                     0                       # TLB accesses on read requests (Count)
system.cpu12.mmu.itb.wrAccesses               8520535                       # TLB accesses on write requests (Count)
system.cpu12.mmu.itb.rdMisses                       0                       # TLB misses on read requests (Count)
system.cpu12.mmu.itb.wrMisses                       8                       # TLB misses on write requests (Count)
system.cpu12.mmu.itb.walker.power_state.pwrStateResidencyTicks::UNDEFINED 5050801767500                       # Cumulative time (in ticks) in various power states (Tick)
system.cpu12.power_state.numTransitions          2488                       # Number of power state transitions (Count)
system.cpu12.power_state.ticksClkGated::samples         1245                       # Distribution of time spent in the clock gated state
system.cpu12.power_state.ticksClkGated::mean 3667298520.080321                       # Distribution of time spent in the clock gated state
system.cpu12.power_state.ticksClkGated::stdev 1070375740.233657                       # Distribution of time spent in the clock gated state
system.cpu12.power_state.ticksClkGated::1000-5e+10         1245    100.00%    100.00% # Distribution of time spent in the clock gated state
system.cpu12.power_state.ticksClkGated::min_value       667000                       # Distribution of time spent in the clock gated state
system.cpu12.power_state.ticksClkGated::max_value  10001274000                       # Distribution of time spent in the clock gated state
system.cpu12.power_state.ticksClkGated::total         1245                       # Distribution of time spent in the clock gated state
system.cpu12.power_state.pwrStateResidencyTicks::ON 485015110000                       # Cumulative time (in ticks) in various power states (Tick)
system.cpu12.power_state.pwrStateResidencyTicks::CLK_GATED 4565786657500                       # Cumulative time (in ticks) in various power states (Tick)
system.cpu12.thread_0.numInsts                      0                       # Number of Instructions committed (Count)
system.cpu12.thread_0.numOps                        0                       # Number of Ops committed (Count)
system.cpu12.thread_0.numMemRefs                    0                       # Number of Memory References (Count)
system.cpu13.numCycles                    10100047203                       # Number of cpu cycles simulated (Cycle)
system.cpu13.numWorkItemsStarted                    0                       # Number of work items this cpu started (Count)
system.cpu13.numWorkItemsCompleted                  0                       # Number of work items this cpu completed (Count)
system.cpu13.exec_context.thread_0.numInsts      6225735                       # Number of instructions committed (Count)
system.cpu13.exec_context.thread_0.numOps     12239385                       # Number of ops (including micro ops) committed (Count)
system.cpu13.exec_context.thread_0.numIntAluAccesses     12056319                       # Number of integer alu accesses (Count)
system.cpu13.exec_context.thread_0.numFpAluAccesses           48                       # Number of float alu accesses (Count)
system.cpu13.exec_context.thread_0.numVecAluAccesses            0                       # Number of vector alu accesses (Count)
system.cpu13.exec_context.thread_0.numCallsReturns       284699                       # Number of times a function call or return occured (Count)
system.cpu13.exec_context.thread_0.numCondCtrlInsts       865322                       # Number of instructions that are conditional controls (Count)
system.cpu13.exec_context.thread_0.numIntInsts     12056319                       # Number of integer instructions (Count)
system.cpu13.exec_context.thread_0.numFpInsts           48                       # Number of float instructions (Count)
system.cpu13.exec_context.thread_0.numVecInsts            0                       # Number of vector instructions (Count)
system.cpu13.exec_context.thread_0.numIntRegReads     23422054                       # Number of times the integer registers were read (Count)
system.cpu13.exec_context.thread_0.numIntRegWrites     10068733                       # Number of times the integer registers were written (Count)
system.cpu13.exec_context.thread_0.numFpRegReads           48                       # Number of times the floating registers were read (Count)
system.cpu13.exec_context.thread_0.numFpRegWrites            0                       # Number of times the floating registers were written (Count)
system.cpu13.exec_context.thread_0.numVecRegReads            0                       # Number of times the vector registers were read (Count)
system.cpu13.exec_context.thread_0.numVecRegWrites            0                       # Number of times the vector registers were written (Count)
system.cpu13.exec_context.thread_0.numVecPredRegReads            0                       # Number of times the predicate registers were read (Count)
system.cpu13.exec_context.thread_0.numVecPredRegWrites            0                       # Number of times the predicate registers were written (Count)
system.cpu13.exec_context.thread_0.numCCRegReads      8051393                       # Number of times the CC registers were read (Count)
system.cpu13.exec_context.thread_0.numCCRegWrites      4330149                       # Number of times the CC registers were written (Count)
system.cpu13.exec_context.thread_0.numMemRefs      2492904                       # Number of memory refs (Count)
system.cpu13.exec_context.thread_0.numLoadInsts      1716778                       # Number of load instructions (Count)
system.cpu13.exec_context.thread_0.numStoreInsts       776126                       # Number of store instructions (Count)
system.cpu13.exec_context.thread_0.numIdleCycles 10073874546.985323                       # Number of idle cycles (Cycle)
[...]
system.ruby.network.routers7.msg_count.Broadcast_Control::3      2883271                       (Unspecified)
system.ruby.network.routers7.msg_bytes.Broadcast_Control::3     23066168                       (Unspecified)
system.ruby.network.routers7.msg_count.Unblock_Control::5       104053                       (Unspecified)
system.ruby.network.routers7.msg_bytes.Unblock_Control::5       832424                       (Unspecified)
system.ruby.network.routers7.port_buffers10.m_buf_msgs     0.000010                       # Average number of messages in buffer (Unspecified)
system.ruby.network.routers7.port_buffers10.m_stall_time  5039.702366                       # Average number of cycles messages are stalled in this MB (Unspecified)
system.ruby.network.routers7.port_buffers3.m_buf_msgs     0.000285                       # Average number of messages in buffer (Unspecified)
system.ruby.network.routers7.port_buffers3.m_stall_time  3500.014720                       # Average number of cycles messages are stalled in this MB (Unspecified)
system.ruby.network.routers7.port_buffers4.m_buf_msgs     0.000154                       # Average number of messages in buffer (Unspecified)
system.ruby.network.routers7.port_buffers4.m_stall_time 11844.960325                       # Average number of cycles messages are stalled in this MB (Unspecified)
system.ruby.network.routers7.port_buffers7.m_buf_msgs     0.000010                       # Average number of messages in buffer (Unspecified)
system.ruby.network.routers7.port_buffers7.m_stall_time  1374.464624                       # Average number of cycles messages are stalled in this MB (Unspecified)
system.ruby.network.routers7.port_buffers9.m_buf_msgs     0.000285                       # Average number of messages in buffer (Unspecified)
system.ruby.network.routers7.port_buffers9.m_stall_time  5500.000405                       # Average number of cycles messages are stalled in this MB (Unspecified)
system.ruby.network.routers7.power_state.pwrStateResidencyTicks::UNDEFINED 5055860217000                       # Cumulative time (in ticks) in various power states (Tick)
system.ruby.network.routers7.throttle00.link_utilization     0.256418                       (Unspecified)
system.ruby.network.routers7.throttle00.msg_count.Request_Control::3           15                       (Unspecified)
system.ruby.network.routers7.throttle00.msg_bytes.Request_Control::3          120                       (Unspecified)
system.ruby.network.routers7.throttle00.msg_count.Response_Data::4       104037                       (Unspecified)
system.ruby.network.routers7.throttle00.msg_bytes.Response_Data::4      7490664                       (Unspecified)
system.ruby.network.routers7.throttle00.msg_count.Response_Control::4      1457603                       (Unspecified)
system.ruby.network.routers7.throttle00.msg_bytes.Response_Control::4     11660824                       (Unspecified)
system.ruby.network.routers7.throttle00.msg_count.Writeback_Control::3           20                       (Unspecified)
system.ruby.network.routers7.throttle00.msg_bytes.Writeback_Control::3          160                       (Unspecified)
system.ruby.network.routers7.throttle00.msg_count.Broadcast_Control::3      2883271                       (Unspecified)
system.ruby.network.routers7.throttle00.msg_bytes.Broadcast_Control::3     23066168                       (Unspecified)
system.ruby.network.routers7.throttle01.link_utilization     0.242322                       (Unspecified)
system.ruby.network.routers7.throttle01.msg_count.Request_Control::2       104053                       (Unspecified)
system.ruby.network.routers7.throttle01.msg_bytes.Request_Control::2       832424                       (Unspecified)
system.ruby.network.routers7.throttle01.msg_count.Response_Data::4        95761                       (Unspecified)
system.ruby.network.routers7.throttle01.msg_bytes.Response_Data::4      6894792                       (Unspecified)
system.ruby.network.routers7.throttle01.msg_count.Response_Control::4      2787525                       (Unspecified)
system.ruby.network.routers7.throttle01.msg_bytes.Response_Control::4     22300200                       (Unspecified)
system.ruby.network.routers7.throttle01.msg_count.Writeback_Data::5           17                       (Unspecified)
system.ruby.network.routers7.throttle01.msg_bytes.Writeback_Data::5         1224                       (Unspecified)
system.ruby.network.routers7.throttle01.msg_count.Writeback_Control::2           20                       (Unspecified)
system.ruby.network.routers7.throttle01.msg_count.Writeback_Control::5            3                       (Unspecified)
system.ruby.network.routers7.throttle01.msg_bytes.Writeback_Control::2          160                       (Unspecified)
system.ruby.network.routers7.throttle01.msg_bytes.Writeback_Control::5           24                       (Unspecified)
system.ruby.network.routers7.throttle01.msg_count.Unblock_Control::5       104053                       (Unspecified)
system.ruby.network.routers7.throttle01.msg_bytes.Unblock_Control::5       832424                       (Unspecified)
system.ruby.network.routers8.percent_links_utilized     0.242209                       (Unspecified)
system.ruby.network.routers8.msg_count.Request_Control::2       104034                       (Unspecified)
system.ruby.network.routers8.msg_count.Request_Control::3           19                       (Unspecified)
system.ruby.network.routers8.msg_bytes.Request_Control::2       832272                       (Unspecified)
system.ruby.network.routers8.msg_bytes.Request_Control::3          152                       (Unspecified)
system.ruby.network.routers8.msg_count.Response_Data::4       197975                       (Unspecified)
system.ruby.network.routers8.msg_bytes.Response_Data::4     14254200                       (Unspecified)
system.ruby.network.routers8.msg_count.Response_Control::4      4246518                       (Unspecified)
system.ruby.network.routers8.msg_bytes.Response_Control::4     33972144                       (Unspecified)
system.ruby.network.routers8.msg_count.Writeback_Data::5           23                       (Unspecified)
system.ruby.network.routers8.msg_bytes.Writeback_Data::5         1656                       (Unspecified)
system.ruby.network.routers8.msg_count.Writeback_Control::2           24                       (Unspecified)
system.ruby.network.routers8.msg_count.Writeback_Control::3           24                       (Unspecified)
system.ruby.network.routers8.msg_count.Writeback_Control::5            1                       (Unspecified)
system.ruby.network.routers8.msg_bytes.Writeback_Control::2          192                       (Unspecified)
system.ruby.network.routers8.msg_bytes.Writeback_Control::3          192                       (Unspecified)
system.ruby.network.routers8.msg_bytes.Writeback_Control::5            8                       (Unspecified)
system.ruby.network.routers8.msg_count.Broadcast_Control::3      2883294                       (Unspecified)
system.ruby.network.routers8.msg_bytes.Broadcast_Control::3     23066352                       (Unspecified)
system.ruby.network.routers8.msg_count.Unblock_Control::5       104034                       (Unspecified)
system.ruby.network.routers8.msg_bytes.Unblock_Control::5       832272                       (Unspecified)
system.ruby.network.routers8.port_buffers10.m_buf_msgs     0.000010                       # Average number of messages in buffer (Unspecified)
system.ruby.network.routers8.port_buffers10.m_stall_time  5026.912051                       # Average number of cycles messages are stalled in this MB (Unspecified)
system.ruby.network.routers8.port_buffers3.m_buf_msgs     0.000285                       # Average number of messages in buffer (Unspecified)
system.ruby.network.routers8.port_buffers3.m_stall_time  3500.007835                       # Average number of cycles messages are stalled in this MB (Unspecified)
system.ruby.network.routers8.port_buffers4.m_buf_msgs     0.000154                       # Average number of messages in buffer (Unspecified)
system.ruby.network.routers8.port_buffers4.m_stall_time 11835.148654                       # Average number of cycles messages are stalled in this MB (Unspecified)
system.ruby.network.routers8.port_buffers7.m_buf_msgs     0.000010                       # Average number of messages in buffer (Unspecified)
system.ruby.network.routers8.port_buffers7.m_stall_time  1370.976425                       # Average number of cycles messages are stalled in this MB (Unspecified)
system.ruby.network.routers8.port_buffers9.m_buf_msgs     0.000285                       # Average number of messages in buffer (Unspecified)
system.ruby.network.routers8.port_buffers9.m_stall_time  5500.000128                       # Average number of cycles messages are stalled in this MB (Unspecified)
system.ruby.network.routers8.power_state.pwrStateResidencyTicks::UNDEFINED 5055860217000                       # Cumulative time (in ticks) in various power states (Tick)
system.ruby.network.routers8.throttle00.link_utilization     0.245426                       (Unspecified)
system.ruby.network.routers8.throttle00.msg_count.Request_Control::3           19                       (Unspecified)
system.ruby.network.routers8.throttle00.msg_bytes.Request_Control::3          152                       (Unspecified)
system.ruby.network.routers8.throttle00.msg_count.Response_Data::4       104017                       (Unspecified)
system.ruby.network.routers8.throttle00.msg_bytes.Response_Data::4      7489224                       (Unspecified)
system.ruby.network.routers8.throttle00.msg_count.Response_Control::4      1457163                       (Unspecified)
system.ruby.network.routers8.throttle00.msg_bytes.Response_Control::4     11657304                       (Unspecified)
system.ruby.network.routers8.throttle00.msg_count.Writeback_Control::3           24                       (Unspecified)
system.ruby.network.routers8.throttle00.msg_bytes.Writeback_Control::3          192                       (Unspecified)
system.ruby.network.routers8.throttle00.msg_count.Broadcast_Control::3      2883294                       (Unspecified)
system.ruby.network.routers8.throttle00.msg_bytes.Broadcast_Control::3     23066352                       (Unspecified)
system.ruby.network.routers8.throttle01.link_utilization     0.238992                       (Unspecified)
system.ruby.network.routers8.throttle01.msg_count.Request_Control::2       104034                       (Unspecified)
system.ruby.network.routers8.throttle01.msg_bytes.Request_Control::2       832272                       (Unspecified)
system.ruby.network.routers8.throttle01.msg_count.Response_Data::4        93958                       (Unspecified)
system.ruby.network.routers8.throttle01.msg_bytes.Response_Data::4      6764976                       (Unspecified)
system.ruby.network.routers8.throttle01.msg_count.Response_Control::4      2789355                       (Unspecified)
system.ruby.network.routers8.throttle01.msg_bytes.Response_Control::4     22314840                       (Unspecified)
system.ruby.network.routers8.throttle01.msg_count.Writeback_Data::5           23                       (Unspecified)
system.ruby.network.routers8.throttle01.msg_bytes.Writeback_Data::5         1656                       (Unspecified)
system.ruby.network.routers8.throttle01.msg_count.Writeback_Control::2           24                       (Unspecified)
system.ruby.network.routers8.throttle01.msg_count.Writeback_Control::5            1                       (Unspecified)
system.ruby.network.routers8.throttle01.msg_bytes.Writeback_Control::2          192                       (Unspecified)
system.ruby.network.routers8.throttle01.msg_bytes.Writeback_Control::5            8                       (Unspecified)
system.ruby.network.routers8.throttle01.msg_count.Unblock_Control::5       104034                       (Unspecified)
system.ruby.network.routers8.throttle01.msg_bytes.Unblock_Control::5       832272                       (Unspecified)
system.ruby.network.routers9.percent_links_utilized     0.241368                       (Unspecified)
system.ruby.network.routers9.msg_count.Request_Control::2       103993                       (Unspecified)
system.ruby.network.routers9.msg_count.Request_Control::3           22                       (Unspecified)
system.ruby.network.routers9.msg_bytes.Request_Control::2       831944                       (Unspecified)
system.ruby.network.routers9.msg_bytes.Request_Control::3          176                       (Unspecified)
system.ruby.network.routers9.msg_count.Response_Data::4       197810                       (Unspecified)
system.ruby.network.routers9.msg_bytes.Response_Data::4     14242320                       (Unspecified)
system.ruby.network.routers9.msg_count.Response_Control::4      4246134                       (Unspecified)
system.ruby.network.routers9.msg_bytes.Response_Control::4     33969072                       (Unspecified)
system.ruby.network.routers9.msg_count.Writeback_Data::5           12                       (Unspecified)
system.ruby.network.routers9.msg_bytes.Writeback_Data::5          864                       (Unspecified)
system.ruby.network.routers9.msg_count.Writeback_Control::2           16                       (Unspecified)
system.ruby.network.routers9.msg_count.Writeback_Control::3           16                       (Unspecified)
system.ruby.network.routers9.msg_count.Writeback_Control::5            4                       (Unspecified)
system.ruby.network.routers9.msg_bytes.Writeback_Control::2          128                       (Unspecified)
system.ruby.network.routers9.msg_bytes.Writeback_Control::3          128                       (Unspecified)
system.ruby.network.routers9.msg_bytes.Writeback_Control::5           32                       (Unspecified)
system.ruby.network.routers9.msg_count.Broadcast_Control::3      2883333                       (Unspecified)
system.ruby.network.routers9.msg_bytes.Broadcast_Control::3     23066664                       (Unspecified)
system.ruby.network.routers9.msg_count.Unblock_Control::5       103993                       (Unspecified)
system.ruby.network.routers9.msg_bytes.Unblock_Control::5       831944                       (Unspecified)
system.ruby.network.routers9.port_buffers10.m_buf_msgs     0.000010                       # Average number of messages in buffer (Unspecified)
system.ruby.network.routers9.port_buffers10.m_stall_time  5014.124849                       # Average number of cycles messages are stalled in this MB (Unspecified)
system.ruby.network.routers9.port_buffers3.m_buf_msgs     0.000285                       # Average number of messages in buffer (Unspecified)
system.ruby.network.routers9.port_buffers3.m_stall_time  3500.007644                       # Average number of cycles messages are stalled in this MB (Unspecified)
system.ruby.network.routers9.port_buffers4.m_buf_msgs     0.000154                       # Average number of messages in buffer (Unspecified)
system.ruby.network.routers9.port_buffers4.m_stall_time 11824.326855                       # Average number of cycles messages are stalled in this MB (Unspecified)
system.ruby.network.routers9.port_buffers7.m_buf_msgs     0.000010                       # Average number of messages in buffer (Unspecified)
system.ruby.network.routers9.port_buffers7.m_stall_time  1367.488866                       # Average number of cycles messages are stalled in this MB (Unspecified)
system.ruby.network.routers9.port_buffers9.m_buf_msgs     0.000285                       # Average number of messages in buffer (Unspecified)
system.ruby.network.routers9.port_buffers9.m_stall_time  5500.000300                       # Average number of cycles messages are stalled in this MB (Unspecified)
system.ruby.network.routers9.power_state.pwrStateResidencyTicks::UNDEFINED 5055860217000                       # Cumulative time (in ticks) in various power states (Tick)
system.ruby.network.routers9.throttle00.link_utilization     0.245426                       (Unspecified)
system.ruby.network.routers9.throttle00.msg_count.Request_Control::3           22                       (Unspecified)
system.ruby.network.routers9.throttle00.msg_bytes.Request_Control::3          176                       (Unspecified)
system.ruby.network.routers9.throttle00.msg_count.Response_Data::4       103976                       (Unspecified)
system.ruby.network.routers9.throttle00.msg_bytes.Response_Data::4      7486272                       (Unspecified)
system.ruby.network.routers9.throttle00.msg_count.Response_Control::4      1456613                       (Unspecified)
system.ruby.network.routers9.throttle00.msg_bytes.Response_Control::4     11652904                       (Unspecified)
system.ruby.network.routers9.throttle00.msg_count.Writeback_Control::3           16                       (Unspecified)
system.ruby.network.routers9.throttle00.msg_bytes.Writeback_Control::3          128                       (Unspecified)
system.ruby.network.routers9.throttle00.msg_count.Broadcast_Control::3      2883333                       (Unspecified)
system.ruby.network.routers9.throttle00.msg_bytes.Broadcast_Control::3     23066664                       (Unspecified)
system.ruby.network.routers9.throttle01.link_utilization     0.237310                       (Unspecified)
system.ruby.network.routers9.throttle01.msg_count.Request_Control::2       103993                       (Unspecified)
system.ruby.network.routers9.throttle01.msg_bytes.Request_Control::2       831944                       (Unspecified)
system.ruby.network.routers9.throttle01.msg_count.Response_Data::4        93834                       (Unspecified)
system.ruby.network.routers9.throttle01.msg_bytes.Response_Data::4      6756048                       (Unspecified)
system.ruby.network.routers9.throttle01.msg_count.Response_Control::4      2789521                       (Unspecified)
system.ruby.network.routers9.throttle01.msg_bytes.Response_Control::4     22316168                       (Unspecified)
system.ruby.network.routers9.throttle01.msg_count.Writeback_Data::5           12                       (Unspecified)
system.ruby.network.routers9.throttle01.msg_bytes.Writeback_Data::5          864                       (Unspecified)
system.ruby.network.routers9.throttle01.msg_count.Writeback_Control::2           16                       (Unspecified)
system.ruby.network.routers9.throttle01.msg_count.Writeback_Control::5            4                       (Unspecified)
system.ruby.network.routers9.throttle01.msg_bytes.Writeback_Control::2          128                       (Unspecified)
system.ruby.network.routers9.throttle01.msg_bytes.Writeback_Control::5           32                       (Unspecified)
system.ruby.network.routers9.throttle01.msg_count.Unblock_Control::5       103993                       (Unspecified)
system.ruby.network.routers9.throttle01.msg_bytes.Unblock_Control::5       831944                       (Unspecified)
system.ruby.power_state.pwrStateResidencyTicks::UNDEFINED 5055860217000                       # Cumulative time (in ticks) in various power states (Tick)
system.sys_port_proxy.power_state.pwrStateResidencyTicks::UNDEFINED   5058449500                       # Cumulative time (in ticks) in various power states (Tick)
system.voltage_domain.voltage                       1                       # Voltage in Volts (Volt)
system.workload.inst.arm                            0                       # number of arm instructions executed (Count)
system.workload.inst.quiesce                      120                       # number of quiesce instructions executed (Count)

---------- End Simulation Statistics   ----------
