
---------- Begin Simulation Statistics ----------
simSeconds                                   5.062976                       # Number of seconds simulated (Second)
simTicks                                 5062976179500                       # Number of ticks simulated (Tick)
finalTick                                5062976179500                       # Number of ticks from beginning of simulation (restored from checkpoints and never reset) (Tick)
simFreq                                  1000000000000                       # The number of ticks per simulated second ((Tick/Second))
hostSeconds                                   5015.71                       # Real time elapsed on the host (Second)
hostTickRate                               1009423267                       # The number of ticks simulated per host second (ticks/s) ((Tick/Second))
hostMemory                                    2138920                       # Number of bytes of host memory used (Byte)
simInsts                                    327393602                       # Number of instructions simulated (Count)
simOps                                      785528534                       # Number of ops (including micro ops) simulated (Count)
hostInstRate                                    65274                       # Simulator instruction rate (inst/s) ((Count/Second))
hostOpRate                                     156614                       # Simulator op (including micro ops) rate (op/s) ((Count/Second))
system.clk_domain.clock                          1000                       # Clock period in ticks (Tick)
system.cpu0.numCycles                     10125301360                       # Number of cpu cycles simulated (Cycle)
system.cpu0.numWorkItemsStarted                     0                       # Number of work items this cpu started (Count)
system.cpu0.numWorkItemsCompleted                   0                       # Number of work items this cpu completed (Count)
system.cpu0.exec_context.thread_0.numInsts    211164341                       # Number of instructions committed (Count)
system.cpu0.exec_context.thread_0.numOps    555939947                       # Number of ops (including micro ops) committed (Count)
system.cpu0.exec_context.thread_0.numIntAluAccesses    497521736                       # Number of integer alu accesses (Count)
system.cpu0.exec_context.thread_0.numFpAluAccesses        28071                       # Number of float alu accesses (Count)
system.cpu0.exec_context.thread_0.numVecAluAccesses            0                       # Number of vector alu accesses (Count)
system.cpu0.exec_context.thread_0.numCallsReturns      3024019                       # Number of times a function call or return occured (Count)
system.cpu0.exec_context.thread_0.numCondCtrlInsts     70396763                       # Number of instructions that are conditional controls (Count)
system.cpu0.exec_context.thread_0.numIntInsts    497521736                       # Number of integer instructions (Count)
system.cpu0.exec_context.thread_0.numFpInsts        28071                       # Number of float instructions (Count)
system.cpu0.exec_context.thread_0.numVecInsts            0                       # Number of vector instructions (Count)
system.cpu0.exec_context.thread_0.numIntRegReads    819842483                       # Number of times the integer registers were read (Count)
system.cpu0.exec_context.thread_0.numIntRegWrites    413148694                       # Number of times the integer registers were written (Count)
system.cpu0.exec_context.thread_0.numFpRegReads        47447                       # Number of times the floating registers were read (Count)
system.cpu0.exec_context.thread_0.numFpRegWrites        22274                       # Number of times the floating registers were written (Count)
system.cpu0.exec_context.thread_0.numVecRegReads            0                       # Number of times the vector registers were read (Count)
system.cpu0.exec_context.thread_0.numVecRegWrites            0                       # Number of times the vector registers were written (Count)
system.cpu0.exec_context.thread_0.numVecPredRegReads            0                       # Number of times the predicate registers were read (Count)
system.cpu0.exec_context.thread_0.numVecPredRegWrites            0                       # Number of times the predicate registers were written (Count)
system.cpu0.exec_context.thread_0.numCCRegReads    373128824                       # Number of times the CC registers were read (Count)
system.cpu0.exec_context.thread_0.numCCRegWrites    160386145                       # Number of times the CC registers were written (Count)
system.cpu0.exec_context.thread_0.numMemRefs     84569305                       # Number of memory refs (Count)
system.cpu0.exec_context.thread_0.numLoadInsts     61962671                       # Number of load instructions (Count)
system.cpu0.exec_context.thread_0.numStoreInsts     22606634                       # Number of store instructions (Count)
system.cpu0.exec_context.thread_0.numIdleCycles 9234620587.126633                       # Number of idle cycles (Cycle)
system.cpu0.exec_context.thread_0.numBusyCycles 890680772.873367                       # Number of busy cycles (Cycle)
system.cpu0.exec_context.thread_0.notIdleFraction     0.087966                       # Percentage of non-idle cycles (Ratio)
system.cpu0.exec_context.thread_0.idleFraction     0.912034                       # Percentage of idle cycles (Ratio)
system.cpu0.exec_context.thread_0.numBranches     75186417                       # Number of branches fetched (Count)
system.cpu0.exec_context.thread_0.statExecutedInstType::No_OpClass     13723029      2.47%      2.47% # Class of executed instruction. (Count)
system.cpu0.exec_context.thread_0.statExecutedInstType::IntAlu    457270931     82.25%     84.72% # Class of executed instruction. (Count)
system.cpu0.exec_context.thread_0.statExecutedInstType::IntMult       320392      0.06%     84.78% # Class of executed instruction. (Count)
system.cpu0.exec_context.thread_0.statExecutedInstType::IntDiv        40994      0.01%     84.79% # Class of executed instruction. (Count)
system.cpu0.exec_context.thread_0.statExecutedInstType::FloatAdd          605      0.00%     84.79% # Class of executed instruction. (Count)
system.cpu0.exec_context.thread_0.statExecutedInstType::FloatCmp            0      0.00%     84.79% # Class of executed instruction. (Count)
system.cpu0.exec_context.thread_0.statExecutedInstType::FloatCvt           16      0.00%     84.79% # Class of executed instruction. (Count)
system.cpu0.exec_context.thread_0.statExecutedInstType::FloatMult            0      0.00%     84.79% # Class of executed instruction. (Count)
system.cpu0.exec_context.thread_0.statExecutedInstType::FloatMultAcc            0      0.00%     84.79% # Class of executed instruction. (Count)
system.cpu0.exec_context.thread_0.statExecutedInstType::FloatDiv            0      0.00%     84.79% # Class of executed instruction. (Count)
system.cpu0.exec_context.thread_0.statExecutedInstType::FloatMisc            0      0.00%     84.79% # Class of executed instruction. (Count)
system.cpu0.exec_context.thread_0.statExecutedInstType::FloatSqrt            0      0.00%     84.79% # Class of executed instruction. (Count)
system.cpu0.exec_context.thread_0.statExecutedInstType::SimdAdd          872      0.00%     84.79% # Class of executed instruction. (Count)
system.cpu0.exec_context.thread_0.statExecutedInstType::SimdAddAcc            0      0.00%     84.79% # Class of executed instruction. (Count)
system.cpu0.exec_context.thread_0.statExecutedInstType::SimdAlu         2413      0.00%     84.79% # Class of executed instruction. (Count)
system.cpu0.exec_context.thread_0.statExecutedInstType::SimdCmp            0      0.00%     84.79% # Class of executed instruction. (Count)
system.cpu0.exec_context.thread_0.statExecutedInstType::SimdCvt         6500      0.00%     84.79% # Class of executed instruction. (Count)
system.cpu0.exec_context.thread_0.statExecutedInstType::SimdMisc         9394      0.00%     84.79% # Class of executed instruction. (Count)
system.cpu0.exec_context.thread_0.statExecutedInstType::SimdMult            0      0.00%     84.79% # Class of executed instruction. (Count)
system.cpu0.exec_context.thread_0.statExecutedInstType::SimdMultAcc            0      0.00%     84.79% # Class of executed instruction. (Count)
system.cpu0.exec_context.thread_0.statExecutedInstType::SimdShift          430      0.00%     84.79% # Class of executed instruction. (Count)
system.cpu0.exec_context.thread_0.statExecutedInstType::SimdShiftAcc            0      0.00%     84.79% # Class of executed instruction. (Count)
system.cpu0.exec_context.thread_0.statExecutedInstType::SimdDiv            0      0.00%     84.79% # Class of executed instruction. (Count)
system.cpu0.exec_context.thread_0.statExecutedInstType::SimdSqrt            0      0.00%     84.79% # Class of executed instruction. (Count)
system.cpu0.exec_context.thread_0.statExecutedInstType::SimdFloatAdd            0      0.00%     84.79% # Class of executed instruction. (Count)
system.cpu0.exec_context.thread_0.statExecutedInstType::SimdFloatAlu            0      0.00%     84.79% # Class of executed instruction. (Count)
system.cpu0.exec_context.thread_0.statExecutedInstType::SimdFloatCmp            0      0.00%     84.79% # Class of executed instruction. (Count)
system.cpu0.exec_context.thread_0.statExecutedInstType::SimdFloatCvt            0      0.00%     84.79% # Class of executed instruction. (Count)
system.cpu0.exec_context.thread_0.statExecutedInstType::SimdFloatDiv            0      0.00%     84.79% # Class of executed instruction. (Count)
system.cpu0.exec_context.thread_0.statExecutedInstType::SimdFloatMisc            0      0.00%     84.79% # Class of executed instruction. (Count)
system.cpu0.exec_context.thread_0.statExecutedInstType::SimdFloatMult            0      0.00%     84.79% # Class of executed instruction. (Count)
system.cpu0.exec_context.thread_0.statExecutedInstType::SimdFloatMultAcc            0      0.00%     84.79% # Class of executed instruction. (Count)
system.cpu0.exec_context.thread_0.statExecutedInstType::SimdFloatSqrt            0      0.00%     84.79% # Class of executed instruction. (Count)
system.cpu0.exec_context.thread_0.statExecutedInstType::SimdReduceAdd            0      0.00%     84.79% # Class of executed instruction. (Count)
system.cpu0.exec_context.thread_0.statExecutedInstType::SimdReduceAlu            0      0.00%     84.79% # Class of executed instruction. (Count)
system.cpu0.exec_context.thread_0.statExecutedInstType::SimdReduceCmp            0      0.00%     84.79% # Class of executed instruction. (Count)
system.cpu0.exec_context.thread_0.statExecutedInstType::SimdFloatReduceAdd            0      0.00%     84.79% # Class of executed instruction. (Count)
system.cpu0.exec_context.thread_0.statExecutedInstType::SimdFloatReduceCmp            0      0.00%     84.79% # Class of executed instruction. (Count)
system.cpu0.exec_context.thread_0.statExecutedInstType::SimdAes            0      0.00%     84.79% # Class of executed instruction. (Count)
system.cpu0.exec_context.thread_0.statExecutedInstType::SimdAesMix            0      0.00%     84.79% # Class of executed instruction. (Count)
system.cpu0.exec_context.thread_0.statExecutedInstType::SimdSha1Hash            0      0.00%     84.79% # Class of executed instruction. (Count)
system.cpu0.exec_context.thread_0.statExecutedInstType::SimdSha1Hash2            0      0.00%     84.79% # Class of executed instruction. (Count)
system.cpu0.exec_context.thread_0.statExecutedInstType::SimdSha256Hash            0      0.00%     84.79% # Class of executed instruction. (Count)
system.cpu0.exec_context.thread_0.statExecutedInstType::SimdSha256Hash2            0      0.00%     84.79% # Class of executed instruction. (Count)
system.cpu0.exec_context.thread_0.statExecutedInstType::SimdShaSigma2            0      0.00%     84.79% # Class of executed instruction. (Count)
system.cpu0.exec_context.thread_0.statExecutedInstType::SimdShaSigma3            0      0.00%     84.79% # Class of executed instruction. (Count)
system.cpu0.exec_context.thread_0.statExecutedInstType::SimdPredAlu            0      0.00%     84.79% # Class of executed instruction. (Count)
system.cpu0.exec_context.thread_0.statExecutedInstType::MemRead     61953319     11.14%     95.93% # Class of executed instruction. (Count)
system.cpu0.exec_context.thread_0.statExecutedInstType::MemWrite     22606487      4.07%    100.00% # Class of executed instruction. (Count)
system.cpu0.exec_context.thread_0.statExecutedInstType::FloatMemRead         4802      0.00%    100.00% # Class of executed instruction. (Count)
system.cpu0.exec_context.thread_0.statExecutedInstType::FloatMemWrite          147      0.00%    100.00% # Class of executed instruction. (Count)
system.cpu0.exec_context.thread_0.statExecutedInstType::IprAccess            0      0.00%    100.00% # Class of executed instruction. (Count)
system.cpu0.exec_context.thread_0.statExecutedInstType::InstPrefetch            0      0.00%    100.00% # Class of executed instruction. (Count)
system.cpu0.exec_context.thread_0.statExecutedInstType::total    555940331                       # Class of executed instruction. (Count)
system.cpu0.interrupts.clk_domain.clock          8000                       # Clock period in ticks (Tick)
system.cpu0.mmu.dtb.rdAccesses               61805069                       # TLB accesses on read requests (Count)
system.cpu0.mmu.dtb.wrAccesses               22587630                       # TLB accesses on write requests (Count)
system.cpu0.mmu.dtb.rdMisses                      699                       # TLB misses on read requests (Count)
system.cpu0.mmu.dtb.wrMisses                      137                       # TLB misses on write requests (Count)
system.cpu0.mmu.dtb.walker.power_state.pwrStateResidencyTicks::UNDEFINED 5062976179500                       # Cumulative time (in ticks) in various power states (Tick)
system.cpu0.mmu.itb.rdAccesses                      0                       # TLB accesses on read requests (Count)
system.cpu0.mmu.itb.wrAccesses              279374177                       # TLB accesses on write requests (Count)
system.cpu0.mmu.itb.rdMisses                        0                       # TLB misses on read requests (Count)
system.cpu0.mmu.itb.wrMisses                      725                       # TLB misses on write requests (Count)
system.cpu0.mmu.itb.walker.power_state.pwrStateResidencyTicks::UNDEFINED 5062976179500                       # Cumulative time (in ticks) in various power states (Tick)
system.cpu0.power_state.numTransitions          24692                       # Number of power state transitions (Count)
system.cpu0.power_state.ticksClkGated::samples        12306                       # Distribution of time spent in the clock gated state
system.cpu0.power_state.ticksClkGated::mean 375232176.192264                       # Distribution of time spent in the clock gated state
system.cpu0.power_state.ticksClkGated::stdev 1131673112.976716                       # Distribution of time spent in the clock gated state
system.cpu0.power_state.ticksClkGated::1000-5e+10        12306    100.00%    100.00% # Distribution of time spent in the clock gated state
system.cpu0.power_state.ticksClkGated::min_value       337001                       # Distribution of time spent in the clock gated state
system.cpu0.power_state.ticksClkGated::max_value   3987189000                       # Distribution of time spent in the clock gated state
system.cpu0.power_state.ticksClkGated::total        12306                       # Distribution of time spent in the clock gated state
system.cpu0.power_state.pwrStateResidencyTicks::ON 445369019278                       # Cumulative time (in ticks) in various power states (Tick)
system.cpu0.power_state.pwrStateResidencyTicks::CLK_GATED 4617607160222                       # Cumulative time (in ticks) in various power states (Tick)
system.cpu0.thread_0.numInsts                       0                       # Number of Instructions committed (Count)
system.cpu0.thread_0.numOps                         0                       # Number of Ops committed (Count)
system.cpu0.thread_0.numMemRefs                     0                       # Number of Memory References (Count)
system.cpu1.numCycles                     10125564082                       # Number of cpu cycles simulated (Cycle)
system.cpu1.numWorkItemsStarted                     0                       # Number of work items this cpu started (Count)
system.cpu1.numWorkItemsCompleted                   0                       # Number of work items this cpu completed (Count)
system.cpu1.exec_context.thread_0.numInsts     17591936                       # Number of instructions committed (Count)
system.cpu1.exec_context.thread_0.numOps     36410315                       # Number of ops (including micro ops) committed (Count)
system.cpu1.exec_context.thread_0.numIntAluAccesses     35450633                       # Number of integer alu accesses (Count)
system.cpu1.exec_context.thread_0.numFpAluAccesses         5447                       # Number of float alu accesses (Count)
system.cpu1.exec_context.thread_0.numVecAluAccesses            0                       # Number of vector alu accesses (Count)
system.cpu1.exec_context.thread_0.numCallsReturns       859006                       # Number of times a function call or return occured (Count)
system.cpu1.exec_context.thread_0.numCondCtrlInsts      2688659                       # Number of instructions that are conditional controls (Count)
system.cpu1.exec_context.thread_0.numIntInsts     35450633                       # Number of integer instructions (Count)
system.cpu1.exec_context.thread_0.numFpInsts         5447                       # Number of float instructions (Count)
system.cpu1.exec_context.thread_0.numVecInsts            0                       # Number of vector instructions (Count)
system.cpu1.exec_context.thread_0.numIntRegReads     71878387                       # Number of times the integer registers were read (Count)
system.cpu1.exec_context.thread_0.numIntRegWrites     29086564                       # Number of times the integer registers were written (Count)
system.cpu1.exec_context.thread_0.numFpRegReads         9217                       # Number of times the floating registers were read (Count)
system.cpu1.exec_context.thread_0.numFpRegWrites         4289                       # Number of times the floating registers were written (Count)
system.cpu1.exec_context.thread_0.numVecRegReads            0                       # Number of times the vector registers were read (Count)
system.cpu1.exec_context.thread_0.numVecRegWrites            0                       # Number of times the vector registers were written (Count)
system.cpu1.exec_context.thread_0.numVecPredRegReads            0                       # Number of times the predicate registers were read (Count)
system.cpu1.exec_context.thread_0.numVecPredRegWrites            0                       # Number of times the predicate registers were written (Count)
system.cpu1.exec_context.thread_0.numCCRegReads     21492224                       # Number of times the CC registers were read (Count)
system.cpu1.exec_context.thread_0.numCCRegWrites     11737923                       # Number of times the CC registers were written (Count)
system.cpu1.exec_context.thread_0.numMemRefs      8470637                       # Number of memory refs (Count)
system.cpu1.exec_context.thread_0.numLoadInsts      5301435                       # Number of load instructions (Count)
system.cpu1.exec_context.thread_0.numStoreInsts      3169202                       # Number of store instructions (Count)
system.cpu1.exec_context.thread_0.numIdleCycles 10036527822.203075                       # Number of idle cycles (Cycle)
system.cpu1.exec_context.thread_0.numBusyCycles 89036259.796925                       # Number of busy cycles (Cycle)
system.cpu1.exec_context.thread_0.notIdleFraction     0.008793                       # Percentage of non-idle cycles (Ratio)
system.cpu1.exec_context.thread_0.idleFraction     0.991207                       # Percentage of idle cycles (Ratio)
system.cpu1.exec_context.thread_0.numBranches      3888397                       # Number of branches fetched (Count)
system.cpu1.exec_context.thread_0.statExecutedInstType::No_OpClass       658100      1.81%      1.81% # Class of executed instruction. (Count)
system.cpu1.exec_context.thread_0.statExecutedInstType::IntAlu     27192005     74.68%     76.49% # Class of executed instruction. (Count)
system.cpu1.exec_context.thread_0.statExecutedInstType::IntMult        76760      0.21%     76.70% # Class of executed instruction. (Count)
system.cpu1.exec_context.thread_0.statExecutedInstType::IntDiv        15874      0.04%     76.74% # Class of executed instruction. (Count)
system.cpu1.exec_context.thread_0.statExecutedInstType::FloatAdd           93      0.00%     76.74% # Class of executed instruction. (Count)
system.cpu1.exec_context.thread_0.statExecutedInstType::FloatCmp            0      0.00%     76.74% # Class of executed instruction. (Count)
system.cpu1.exec_context.thread_0.statExecutedInstType::FloatCvt           16      0.00%     76.74% # Class of executed instruction. (Count)
system.cpu1.exec_context.thread_0.statExecutedInstType::FloatMult            0      0.00%     76.74% # Class of executed instruction. (Count)
system.cpu1.exec_context.thread_0.statExecutedInstType::FloatMultAcc            0      0.00%     76.74% # Class of executed instruction. (Count)
system.cpu1.exec_context.thread_0.statExecutedInstType::FloatDiv            0      0.00%     76.74% # Class of executed instruction. (Count)
system.cpu1.exec_context.thread_0.statExecutedInstType::FloatMisc            0      0.00%     76.74% # Class of executed instruction. (Count)
system.cpu1.exec_context.thread_0.statExecutedInstType::FloatSqrt            0      0.00%     76.74% # Class of executed instruction. (Count)
system.cpu1.exec_context.thread_0.statExecutedInstType::SimdAdd          172      0.00%     76.74% # Class of executed instruction. (Count)
system.cpu1.exec_context.thread_0.statExecutedInstType::SimdAddAcc            0      0.00%     76.74% # Class of executed instruction. (Count)
system.cpu1.exec_context.thread_0.statExecutedInstType::SimdAlu          543      0.00%     76.75% # Class of executed instruction. (Count)
system.cpu1.exec_context.thread_0.statExecutedInstType::SimdCmp            0      0.00%     76.75% # Class of executed instruction. (Count)
system.cpu1.exec_context.thread_0.statExecutedInstType::SimdCvt         1270      0.00%     76.75% # Class of executed instruction. (Count)
system.cpu1.exec_context.thread_0.statExecutedInstType::SimdMisc         1721      0.00%     76.75% # Class of executed instruction. (Count)
system.cpu1.exec_context.thread_0.statExecutedInstType::SimdMult            0      0.00%     76.75% # Class of executed instruction. (Count)
system.cpu1.exec_context.thread_0.statExecutedInstType::SimdMultAcc            0      0.00%     76.75% # Class of executed instruction. (Count)
system.cpu1.exec_context.thread_0.statExecutedInstType::SimdShift           49      0.00%     76.75% # Class of executed instruction. (Count)
system.cpu1.exec_context.thread_0.statExecutedInstType::SimdShiftAcc            0      0.00%     76.75% # Class of executed instruction. (Count)
system.cpu1.exec_context.thread_0.statExecutedInstType::SimdDiv            0      0.00%     76.75% # Class of executed instruction. (Count)
system.cpu1.exec_context.thread_0.statExecutedInstType::SimdSqrt            0      0.00%     76.75% # Class of executed instruction. (Count)
system.cpu1.exec_context.thread_0.statExecutedInstType::SimdFloatAdd            0      0.00%     76.75% # Class of executed instruction. (Count)
system.cpu1.exec_context.thread_0.statExecutedInstType::SimdFloatAlu            0      0.00%     76.75% # Class of executed instruction. (Count)
system.cpu1.exec_context.thread_0.statExecutedInstType::SimdFloatCmp            0      0.00%     76.75% # Class of executed instruction. (Count)
system.cpu1.exec_context.thread_0.statExecutedInstType::SimdFloatCvt            0      0.00%     76.75% # Class of executed instruction. (Count)
system.cpu1.exec_context.thread_0.statExecutedInstType::SimdFloatDiv            0      0.00%     76.75% # Class of executed instruction. (Count)
system.cpu1.exec_context.thread_0.statExecutedInstType::SimdFloatMisc            0      0.00%     76.75% # Class of executed instruction. (Count)
system.cpu1.exec_context.thread_0.statExecutedInstType::SimdFloatMult            0      0.00%     76.75% # Class of executed instruction. (Count)
system.cpu1.exec_context.thread_0.statExecutedInstType::SimdFloatMultAcc            0      0.00%     76.75% # Class of executed instruction. (Count)
system.cpu1.exec_context.thread_0.statExecutedInstType::SimdFloatSqrt            0      0.00%     76.75% # Class of executed instruction. (Count)
system.cpu1.exec_context.thread_0.statExecutedInstType::SimdReduceAdd            0      0.00%     76.75% # Class of executed instruction. (Count)
system.cpu1.exec_context.thread_0.statExecutedInstType::SimdReduceAlu            0      0.00%     76.75% # Class of executed instruction. (Count)
system.cpu1.exec_context.thread_0.statExecutedInstType::SimdReduceCmp            0      0.00%     76.75% # Class of executed instruction. (Count)
system.cpu1.exec_context.thread_0.statExecutedInstType::SimdFloatReduceAdd            0      0.00%     76.75% # Class of executed instruction. (Count)
system.cpu1.exec_context.thread_0.statExecutedInstType::SimdFloatReduceCmp            0      0.00%     76.75% # Class of executed instruction. (Count)
system.cpu1.exec_context.thread_0.statExecutedInstType::SimdAes            0      0.00%     76.75% # Class of executed instruction. (Count)
system.cpu1.exec_context.thread_0.statExecutedInstType::SimdAesMix            0      0.00%     76.75% # Class of executed instruction. (Count)
system.cpu1.exec_context.thread_0.statExecutedInstType::SimdSha1Hash            0      0.00%     76.75% # Class of executed instruction. (Count)
system.cpu1.exec_context.thread_0.statExecutedInstType::SimdSha1Hash2            0      0.00%     76.75% # Class of executed instruction. (Count)
system.cpu1.exec_context.thread_0.statExecutedInstType::SimdSha256Hash            0      0.00%     76.75% # Class of executed instruction. (Count)
system.cpu1.exec_context.thread_0.statExecutedInstType::SimdSha256Hash2            0      0.00%     76.75% # Class of executed instruction. (Count)
system.cpu1.exec_context.thread_0.statExecutedInstType::SimdShaSigma2            0      0.00%     76.75% # Class of executed instruction. (Count)
system.cpu1.exec_context.thread_0.statExecutedInstType::SimdShaSigma3            0      0.00%     76.75% # Class of executed instruction. (Count)
system.cpu1.exec_context.thread_0.statExecutedInstType::SimdPredAlu            0      0.00%     76.75% # Class of executed instruction. (Count)
system.cpu1.exec_context.thread_0.statExecutedInstType::MemRead      5293697     14.54%     91.29% # Class of executed instruction. (Count)
system.cpu1.exec_context.thread_0.statExecutedInstType::MemWrite      3169170      8.70%    100.00% # Class of executed instruction. (Count)
system.cpu1.exec_context.thread_0.statExecutedInstType::FloatMemRead          938      0.00%    100.00% # Class of executed instruction. (Count)
system.cpu1.exec_context.thread_0.statExecutedInstType::FloatMemWrite           32      0.00%    100.00% # Class of executed instruction. (Count)
system.cpu1.exec_context.thread_0.statExecutedInstType::IprAccess            0      0.00%    100.00% # Class of executed instruction. (Count)
system.cpu1.exec_context.thread_0.statExecutedInstType::InstPrefetch            0      0.00%    100.00% # Class of executed instruction. (Count)
system.cpu1.exec_context.thread_0.statExecutedInstType::total     36410440                       # Class of executed instruction. (Count)
system.cpu1.interrupts.clk_domain.clock          8000                       # Clock period in ticks (Tick)
system.cpu1.mmu.dtb.rdAccesses                5309389                       # TLB accesses on read requests (Count)
system.cpu1.mmu.dtb.wrAccesses                3177039                       # TLB accesses on write requests (Count)
system.cpu1.mmu.dtb.rdMisses                      196                       # TLB misses on read requests (Count)
system.cpu1.mmu.dtb.wrMisses                      109                       # TLB misses on write requests (Count)
system.cpu1.mmu.dtb.walker.power_state.pwrStateResidencyTicks::UNDEFINED 5062976179500                       # Cumulative time (in ticks) in various power states (Tick)
system.cpu1.mmu.itb.rdAccesses                      0                       # TLB accesses on read requests (Count)
system.cpu1.mmu.itb.wrAccesses               23543989                       # TLB accesses on write requests (Count)
system.cpu1.mmu.itb.rdMisses                        0                       # TLB misses on read requests (Count)
system.cpu1.mmu.itb.wrMisses                      401                       # TLB misses on write requests (Count)
system.cpu1.mmu.itb.walker.power_state.pwrStateResidencyTicks::UNDEFINED 5062976179500                       # Cumulative time (in ticks) in various power states (Tick)
system.cpu1.power_state.numTransitions           7004                       # Number of power state transitions (Count)
system.cpu1.power_state.ticksClkGated::samples         3495                       # Distribution of time spent in the clock gated state
system.cpu1.power_state.ticksClkGated::mean 1336916271.244635                       # Distribution of time spent in the clock gated state
system.cpu1.power_state.ticksClkGated::stdev 1851723590.478555                       # Distribution of time spent in the clock gated state
system.cpu1.power_state.ticksClkGated::1000-5e+10         3495    100.00%    100.00% # Distribution of time spent in the clock gated state
system.cpu1.power_state.ticksClkGated::min_value       463000                       # Distribution of time spent in the clock gated state
system.cpu1.power_state.ticksClkGated::max_value  10001531000                       # Distribution of time spent in the clock gated state
system.cpu1.power_state.ticksClkGated::total         3495                       # Distribution of time spent in the clock gated state
system.cpu1.power_state.pwrStateResidencyTicks::ON 390453811500                       # Cumulative time (in ticks) in various power states (Tick)
system.cpu1.power_state.pwrStateResidencyTicks::CLK_GATED 4672522368000                       # Cumulative time (in ticks) in various power states (Tick)
system.cpu1.thread_0.numInsts                       0                       # Number of Instructions committed (Count)
system.cpu1.thread_0.numOps                         0                       # Number of Ops committed (Count)
system.cpu1.thread_0.numMemRefs                     0                       # Number of Memory References (Count)
system.cpu10.numCycles                    10124325662                       # Number of cpu cycles simulated (Cycle)
system.cpu10.numWorkItemsStarted                    0                       # Number of work items this cpu started (Count)
system.cpu10.numWorkItemsCompleted                  0                       # Number of work items this cpu completed (Count)
system.cpu10.exec_context.thread_0.numInsts      6245678                       # Number of instructions committed (Count)
system.cpu10.exec_context.thread_0.numOps     12279283                       # Number of ops (including micro ops) committed (Count)
system.cpu10.exec_context.thread_0.numIntAluAccesses     12095997                       # Number of integer alu accesses (Count)
system.cpu10.exec_context.thread_0.numFpAluAccesses           48                       # Number of float alu accesses (Count)
system.cpu10.exec_context.thread_0.numVecAluAccesses            0                       # Number of vector alu accesses (Count)
system.cpu10.exec_context.thread_0.numCallsReturns       286087                       # Number of times a function call or return occured (Count)
system.cpu10.exec_context.thread_0.numCondCtrlInsts       867180                       # Number of instructions that are conditional controls (Count)
system.cpu10.exec_context.thread_0.numIntInsts     12095997                       # Number of integer instructions (Count)
system.cpu10.exec_context.thread_0.numFpInsts           48                       # Number of float instructions (Count)
system.cpu10.exec_context.thread_0.numVecInsts            0                       # Number of vector instructions (Count)
system.cpu10.exec_context.thread_0.numIntRegReads     23503250                       # Number of times the integer registers were read (Count)
system.cpu10.exec_context.thread_0.numIntRegWrites     10101097                       # Number of times the integer registers were written (Count)
system.cpu10.exec_context.thread_0.numFpRegReads           48                       # Number of times the floating registers were read (Count)
system.cpu10.exec_context.thread_0.numFpRegWrites            0                       # Number of times the floating registers were written (Count)
system.cpu10.exec_context.thread_0.numVecRegReads            0                       # Number of times the vector registers were read (Count)
system.cpu10.exec_context.thread_0.numVecRegWrites            0                       # Number of times the vector registers were written (Count)
system.cpu10.exec_context.thread_0.numVecPredRegReads            0                       # Number of times the predicate registers were read (Count)
system.cpu10.exec_context.thread_0.numVecPredRegWrites            0                       # Number of times the predicate registers were written (Count)
system.cpu10.exec_context.thread_0.numCCRegReads      8070739                       # Number of times the CC registers were read (Count)
system.cpu10.exec_context.thread_0.numCCRegWrites      4342371                       # Number of times the CC registers were written (Count)
system.cpu10.exec_context.thread_0.numMemRefs      2503036                       # Number of memory refs (Count)
system.cpu10.exec_context.thread_0.numLoadInsts      1723140                       # Number of load instructions (Count)
system.cpu10.exec_context.thread_0.numStoreInsts       779896                       # Number of store instructions (Count)
system.cpu10.exec_context.thread_0.numIdleCycles 10095514033.225857                       # Number of idle cycles (Cycle)
system.cpu10.exec_context.thread_0.numBusyCycles 28811628.774142                       # Number of busy cycles (Cycle)
system.cpu10.exec_context.thread_0.notIdleFraction     0.002846                       # Percentage of non-idle cycles (Ratio)
system.cpu10.exec_context.thread_0.idleFraction     0.997154                       # Percentage of idle cycles (Ratio)
system.cpu10.exec_context.thread_0.numBranches      1281728                       # Number of branches fetched (Count)
system.cpu10.exec_context.thread_0.statExecutedInstType::No_OpClass        63573      0.52%      0.52% # Class of executed instruction. (Count)
system.cpu10.exec_context.thread_0.statExecutedInstType::IntAlu      9684915     78.87%     79.39% # Class of executed instruction. (Count)
system.cpu10.exec_context.thread_0.statExecutedInstType::IntMult        29830      0.24%     79.63% # Class of executed instruction. (Count)
system.cpu10.exec_context.thread_0.statExecutedInstType::IntDiv          415      0.00%     79.64% # Class of executed instruction. (Count)
system.cpu10.exec_context.thread_0.statExecutedInstType::FloatAdd            0      0.00%     79.64% # Class of executed instruction. (Count)
system.cpu10.exec_context.thread_0.statExecutedInstType::FloatCmp            0      0.00%     79.64% # Class of executed instruction. (Count)
system.cpu10.exec_context.thread_0.statExecutedInstType::FloatCvt           16      0.00%     79.64% # Class of executed instruction. (Count)
system.cpu10.exec_context.thread_0.statExecutedInstType::FloatMult            0      0.00%     79.64% # Class of executed instruction. (Count)
system.cpu10.exec_context.thread_0.statExecutedInstType::FloatMultAcc            0      0.00%     79.64% # Class of executed instruction. (Count)
system.cpu10.exec_context.thread_0.statExecutedInstType::FloatDiv            0      0.00%     79.64% # Class of executed instruction. (Count)
system.cpu10.exec_context.thread_0.statExecutedInstType::FloatMisc            0      0.00%     79.64% # Class of executed instruction. (Count)
system.cpu10.exec_context.thread_0.statExecutedInstType::FloatSqrt            0      0.00%     79.64% # Class of executed instruction. (Count)
system.cpu10.exec_context.thread_0.statExecutedInstType::SimdAdd            0      0.00%     79.64% # Class of executed instruction. (Count)
system.cpu10.exec_context.thread_0.statExecutedInstType::SimdAddAcc            0      0.00%     79.64% # Class of executed instruction. (Count)
system.cpu10.exec_context.thread_0.statExecutedInstType::SimdAlu            0      0.00%     79.64% # Class of executed instruction. (Count)
system.cpu10.exec_context.thread_0.statExecutedInstType::SimdCmp            0      0.00%     79.64% # Class of executed instruction. (Count)
system.cpu10.exec_context.thread_0.statExecutedInstType::SimdCvt            0      0.00%     79.64% # Class of executed instruction. (Count)
system.cpu10.exec_context.thread_0.statExecutedInstType::SimdMisc            0      0.00%     79.64% # Class of executed instruction. (Count)
system.cpu10.exec_context.thread_0.statExecutedInstType::SimdMult            0      0.00%     79.64% # Class of executed instruction. (Count)
system.cpu10.exec_context.thread_0.statExecutedInstType::SimdMultAcc            0      0.00%     79.64% # Class of executed instruction. (Count)
system.cpu10.exec_context.thread_0.statExecutedInstType::SimdShift            0      0.00%     79.64% # Class of executed instruction. (Count)
system.cpu10.exec_context.thread_0.statExecutedInstType::SimdShiftAcc            0      0.00%     79.64% # Class of executed instruction. (Count)
system.cpu10.exec_context.thread_0.statExecutedInstType::SimdDiv            0      0.00%     79.64% # Class of executed instruction. (Count)
system.cpu10.exec_context.thread_0.statExecutedInstType::SimdSqrt            0      0.00%     79.64% # Class of executed instruction. (Count)
system.cpu10.exec_context.thread_0.statExecutedInstType::SimdFloatAdd            0      0.00%     79.64% # Class of executed instruction. (Count)
system.cpu10.exec_context.thread_0.statExecutedInstType::SimdFloatAlu            0      0.00%     79.64% # Class of executed instruction. (Count)
system.cpu10.exec_context.thread_0.statExecutedInstType::SimdFloatCmp            0      0.00%     79.64% # Class of executed instruction. (Count)
system.cpu10.exec_context.thread_0.statExecutedInstType::SimdFloatCvt            0      0.00%     79.64% # Class of executed instruction. (Count)
system.cpu10.exec_context.thread_0.statExecutedInstType::SimdFloatDiv            0      0.00%     79.64% # Class of executed instruction. (Count)
system.cpu10.exec_context.thread_0.statExecutedInstType::SimdFloatMisc            0      0.00%     79.64% # Class of executed instruction. (Count)
system.cpu10.exec_context.thread_0.statExecutedInstType::SimdFloatMult            0      0.00%     79.64% # Class of executed instruction. (Count)
system.cpu10.exec_context.thread_0.statExecutedInstType::SimdFloatMultAcc            0      0.00%     79.64% # Class of executed instruction. (Count)
system.cpu10.exec_context.thread_0.statExecutedInstType::SimdFloatSqrt            0      0.00%     79.64% # Class of executed instruction. (Count)
system.cpu10.exec_context.thread_0.statExecutedInstType::SimdReduceAdd            0      0.00%     79.64% # Class of executed instruction. (Count)
system.cpu10.exec_context.thread_0.statExecutedInstType::SimdReduceAlu            0      0.00%     79.64% # Class of executed instruction. (Count)
system.cpu10.exec_context.thread_0.statExecutedInstType::SimdReduceCmp            0      0.00%     79.64% # Class of executed instruction. (Count)
system.cpu10.exec_context.thread_0.statExecutedInstType::SimdFloatReduceAdd            0      0.00%     79.64% # Class of executed instruction. (Count)
system.cpu10.exec_context.thread_0.statExecutedInstType::SimdFloatReduceCmp            0      0.00%     79.64% # Class of executed instruction. (Count)
system.cpu10.exec_context.thread_0.statExecutedInstType::SimdAes            0      0.00%     79.64% # Class of executed instruction. (Count)
system.cpu10.exec_context.thread_0.statExecutedInstType::SimdAesMix            0      0.00%     79.64% # Class of executed instruction. (Count)
system.cpu10.exec_context.thread_0.statExecutedInstType::SimdSha1Hash            0      0.00%     79.64% # Class of executed instruction. (Count)
system.cpu10.exec_context.thread_0.statExecutedInstType::SimdSha1Hash2            0      0.00%     79.64% # Class of executed instruction. (Count)
system.cpu10.exec_context.thread_0.statExecutedInstType::SimdSha256Hash            0      0.00%     79.64% # Class of executed instruction. (Count)
system.cpu10.exec_context.thread_0.statExecutedInstType::SimdSha256Hash2            0      0.00%     79.64% # Class of executed instruction. (Count)
system.cpu10.exec_context.thread_0.statExecutedInstType::SimdShaSigma2            0      0.00%     79.64% # Class of executed instruction. (Count)
system.cpu10.exec_context.thread_0.statExecutedInstType::SimdShaSigma3            0      0.00%     79.64% # Class of executed instruction. (Count)
system.cpu10.exec_context.thread_0.statExecutedInstType::SimdPredAlu            0      0.00%     79.64% # Class of executed instruction. (Count)
system.cpu10.exec_context.thread_0.statExecutedInstType::MemRead      1720638     14.01%     93.65% # Class of executed instruction. (Count)
system.cpu10.exec_context.thread_0.statExecutedInstType::MemWrite       779864      6.35%    100.00% # Class of executed instruction. (Count)
system.cpu10.exec_context.thread_0.statExecutedInstType::FloatMemRead            0      0.00%    100.00% # Class of executed instruction. (Count)
system.cpu10.exec_context.thread_0.statExecutedInstType::FloatMemWrite           32      0.00%    100.00% # Class of executed instruction. (Count)
system.cpu10.exec_context.thread_0.statExecutedInstType::IprAccess            0      0.00%    100.00% # Class of executed instruction. (Count)
system.cpu10.exec_context.thread_0.statExecutedInstType::InstPrefetch            0      0.00%    100.00% # Class of executed instruction. (Count)
system.cpu10.exec_context.thread_0.statExecutedInstType::total     12279283                       # Class of executed instruction. (Count)
system.cpu10.interrupts.clk_domain.clock         8000                       # Clock period in ticks (Tick)
system.cpu10.mmu.dtb.rdAccesses               1726759                       # TLB accesses on read requests (Count)
system.cpu10.mmu.dtb.wrAccesses                783511                       # TLB accesses on write requests (Count)
system.cpu10.mmu.dtb.rdMisses                      20                       # TLB misses on read requests (Count)
system.cpu10.mmu.dtb.wrMisses                       3                       # TLB misses on write requests (Count)
system.cpu10.mmu.dtb.walker.power_state.pwrStateResidencyTicks::UNDEFINED 5062976179500                       # Cumulative time (in ticks) in various power states (Tick)
system.cpu10.mmu.itb.rdAccesses                     0                       # TLB accesses on read requests (Count)
system.cpu10.mmu.itb.wrAccesses               8541808                       # TLB accesses on write requests (Count)
system.cpu10.mmu.itb.rdMisses                       0                       # TLB misses on read requests (Count)
system.cpu10.mmu.itb.wrMisses                       8                       # TLB misses on write requests (Count)
system.cpu10.mmu.itb.walker.power_state.pwrStateResidencyTicks::UNDEFINED 5062976179500                       # Cumulative time (in ticks) in various power states (Tick)
system.cpu10.power_state.numTransitions          2504                       # Number of power state transitions (Count)
system.cpu10.power_state.ticksClkGated::samples         1253                       # Distribution of time spent in the clock gated state
system.cpu10.power_state.ticksClkGated::mean 3668585333.599361                       # Distribution of time spent in the clock gated state
system.cpu10.power_state.ticksClkGated::stdev 1066994581.995414                       # Distribution of time spent in the clock gated state
system.cpu10.power_state.ticksClkGated::1000-5e+10         1253    100.00%    100.00% # Distribution of time spent in the clock gated state
system.cpu10.power_state.ticksClkGated::min_value       667000                       # Distribution of time spent in the clock gated state
system.cpu10.power_state.ticksClkGated::max_value  10001342000                       # Distribution of time spent in the clock gated state
system.cpu10.power_state.ticksClkGated::total         1253                       # Distribution of time spent in the clock gated state
system.cpu10.power_state.pwrStateResidencyTicks::ON 466238756500                       # Cumulative time (in ticks) in various power states (Tick)
system.cpu10.power_state.pwrStateResidencyTicks::CLK_GATED 4596737423000                       # Cumulative time (in ticks) in various power states (Tick)
system.cpu10.thread_0.numInsts                      0                       # Number of Instructions committed (Count)
system.cpu10.thread_0.numOps                        0                       # Number of Ops committed (Count)
system.cpu10.thread_0.numMemRefs                    0                       # Number of Memory References (Count)
system.cpu11.numCycles                    10123849137                       # Number of cpu cycles simulated (Cycle)
system.cpu11.numWorkItemsStarted                    0                       # Number of work items this cpu started (Count)
system.cpu11.numWorkItemsCompleted                  0                       # Number of work items this cpu completed (Count)
system.cpu11.exec_context.thread_0.numInsts      6241039                       # Number of instructions committed (Count)
system.cpu11.exec_context.thread_0.numOps     12269601                       # Number of ops (including micro ops) committed (Count)
system.cpu11.exec_context.thread_0.numIntAluAccesses     12086513                       # Number of integer alu accesses (Count)
system.cpu11.exec_context.thread_0.numFpAluAccesses           48                       # Number of float alu accesses (Count)
system.cpu11.exec_context.thread_0.numVecAluAccesses            0                       # Number of vector alu accesses (Count)
system.cpu11.exec_context.thread_0.numCallsReturns       285793                       # Number of times a function call or return occured (Count)
system.cpu11.exec_context.thread_0.numCondCtrlInsts       866609                       # Number of instructions that are conditional controls (Count)
system.cpu11.exec_context.thread_0.numIntInsts     12086513                       # Number of integer instructions (Count)
system.cpu11.exec_context.thread_0.numFpInsts           48                       # Number of float instructions (Count)
system.cpu11.exec_context.thread_0.numVecInsts            0                       # Number of vector instructions (Count)
system.cpu11.exec_context.thread_0.numIntRegReads     23484718                       # Number of times the integer registers were read (Count)
system.cpu11.exec_context.thread_0.numIntRegWrites     10093313                       # Number of times the integer registers were written (Count)
system.cpu11.exec_context.thread_0.numFpRegReads           48                       # Number of times the floating registers were read (Count)
system.cpu11.exec_context.thread_0.numFpRegWrites            0                       # Number of times the floating registers were written (Count)
system.cpu11.exec_context.thread_0.numVecRegReads            0                       # Number of times the vector registers were read (Count)
system.cpu11.exec_context.thread_0.numVecRegWrites            0                       # Number of times the vector registers were written (Count)
system.cpu11.exec_context.thread_0.numVecPredRegReads            0                       # Number of times the predicate registers were read (Count)
system.cpu11.exec_context.thread_0.numVecPredRegWrites            0                       # Number of times the predicate registers were written (Count)
system.cpu11.exec_context.thread_0.numCCRegReads      8066067                       # Number of times the CC registers were read (Count)
system.cpu11.exec_context.thread_0.numCCRegWrites      4339353                       # Number of times the CC registers were written (Count)
system.cpu11.exec_context.thread_0.numMemRefs      2500738                       # Number of memory refs (Count)
system.cpu11.exec_context.thread_0.numLoadInsts      1721596                       # Number of load instructions (Count)
system.cpu11.exec_context.thread_0.numStoreInsts       779142                       # Number of store instructions (Count)
system.cpu11.exec_context.thread_0.numIdleCycles 10094791223.759501                       # Number of idle cycles (Cycle)
system.cpu11.exec_context.thread_0.numBusyCycles 29057913.240499                       # Number of busy cycles (Cycle)
system.cpu11.exec_context.thread_0.notIdleFraction     0.002870                       # Percentage of non-idle cycles (Ratio)
system.cpu11.exec_context.thread_0.idleFraction     0.997130                       # Percentage of idle cycles (Ratio)
system.cpu11.exec_context.thread_0.numBranches      1280758                       # Number of branches fetched (Count)
system.cpu11.exec_context.thread_0.statExecutedInstType::No_OpClass        63525      0.52%      0.52% # Class of executed instruction. (Count)
system.cpu11.exec_context.thread_0.statExecutedInstType::IntAlu      9677582     78.87%     79.39% # Class of executed instruction. (Count)
system.cpu11.exec_context.thread_0.statExecutedInstType::IntMult        29800      0.24%     79.64% # Class of executed instruction. (Count)
system.cpu11.exec_context.thread_0.statExecutedInstType::IntDiv          436      0.00%     79.64% # Class of executed instruction. (Count)
system.cpu11.exec_context.thread_0.statExecutedInstType::FloatAdd            0      0.00%     79.64% # Class of executed instruction. (Count)
system.cpu11.exec_context.thread_0.statExecutedInstType::FloatCmp            0      0.00%     79.64% # Class of executed instruction. (Count)
system.cpu11.exec_context.thread_0.statExecutedInstType::FloatCvt           16      0.00%     79.64% # Class of executed instruction. (Count)
system.cpu11.exec_context.thread_0.statExecutedInstType::FloatMult            0      0.00%     79.64% # Class of executed instruction. (Count)
system.cpu11.exec_context.thread_0.statExecutedInstType::FloatMultAcc            0      0.00%     79.64% # Class of executed instruction. (Count)
system.cpu11.exec_context.thread_0.statExecutedInstType::FloatDiv            0      0.00%     79.64% # Class of executed instruction. (Count)
system.cpu11.exec_context.thread_0.statExecutedInstType::FloatMisc            0      0.00%     79.64% # Class of executed instruction. (Count)
system.cpu11.exec_context.thread_0.statExecutedInstType::FloatSqrt            0      0.00%     79.64% # Class of executed instruction. (Count)
system.cpu11.exec_context.thread_0.statExecutedInstType::SimdAdd            0      0.00%     79.64% # Class of executed instruction. (Count)
system.cpu11.exec_context.thread_0.statExecutedInstType::SimdAddAcc            0      0.00%     79.64% # Class of executed instruction. (Count)
system.cpu11.exec_context.thread_0.statExecutedInstType::SimdAlu            0      0.00%     79.64% # Class of executed instruction. (Count)
system.cpu11.exec_context.thread_0.statExecutedInstType::SimdCmp            0      0.00%     79.64% # Class of executed instruction. (Count)
system.cpu11.exec_context.thread_0.statExecutedInstType::SimdCvt            0      0.00%     79.64% # Class of executed instruction. (Count)
system.cpu11.exec_context.thread_0.statExecutedInstType::SimdMisc            0      0.00%     79.64% # Class of executed instruction. (Count)
system.cpu11.exec_context.thread_0.statExecutedInstType::SimdMult            0      0.00%     79.64% # Class of executed instruction. (Count)
system.cpu11.exec_context.thread_0.statExecutedInstType::SimdMultAcc            0      0.00%     79.64% # Class of executed instruction. (Count)
system.cpu11.exec_context.thread_0.statExecutedInstType::SimdShift            0      0.00%     79.64% # Class of executed instruction. (Count)
system.cpu11.exec_context.thread_0.statExecutedInstType::SimdShiftAcc            0      0.00%     79.64% # Class of executed instruction. (Count)
system.cpu11.exec_context.thread_0.statExecutedInstType::SimdDiv            0      0.00%     79.64% # Class of executed instruction. (Count)
system.cpu11.exec_context.thread_0.statExecutedInstType::SimdSqrt            0      0.00%     79.64% # Class of executed instruction. (Count)
system.cpu11.exec_context.thread_0.statExecutedInstType::SimdFloatAdd            0      0.00%     79.64% # Class of executed instruction. (Count)
system.cpu11.exec_context.thread_0.statExecutedInstType::SimdFloatAlu            0      0.00%     79.64% # Class of executed instruction. (Count)
system.cpu11.exec_context.thread_0.statExecutedInstType::SimdFloatCmp            0      0.00%     79.64% # Class of executed instruction. (Count)
system.cpu11.exec_context.thread_0.statExecutedInstType::SimdFloatCvt            0      0.00%     79.64% # Class of executed instruction. (Count)
system.cpu11.exec_context.thread_0.statExecutedInstType::SimdFloatDiv            0      0.00%     79.64% # Class of executed instruction. (Count)
system.cpu11.exec_context.thread_0.statExecutedInstType::SimdFloatMisc            0      0.00%     79.64% # Class of executed instruction. (Count)
system.cpu11.exec_context.thread_0.statExecutedInstType::SimdFloatMult            0      0.00%     79.64% # Class of executed instruction. (Count)
system.cpu11.exec_context.thread_0.statExecutedInstType::SimdFloatMultAcc            0      0.00%     79.64% # Class of executed instruction. (Count)
system.cpu11.exec_context.thread_0.statExecutedInstType::SimdFloatSqrt            0      0.00%     79.64% # Class of executed instruction. (Count)
system.cpu11.exec_context.thread_0.statExecutedInstType::SimdReduceAdd            0      0.00%     79.64% # Class of executed instruction. (Count)
system.cpu11.exec_context.thread_0.statExecutedInstType::SimdReduceAlu            0      0.00%     79.64% # Class of executed instruction. (Count)
system.cpu11.exec_context.thread_0.statExecutedInstType::SimdReduceCmp            0      0.00%     79.64% # Class of executed instruction. (Count)
system.cpu11.exec_context.thread_0.statExecutedInstType::SimdFloatReduceAdd            0      0.00%     79.64% # Class of executed instruction. (Count)
system.cpu11.exec_context.thread_0.statExecutedInstType::SimdFloatReduceCmp            0      0.00%     79.64% # Class of executed instruction. (Count)
system.cpu11.exec_context.thread_0.statExecutedInstType::SimdAes            0      0.00%     79.64% # Class of executed instruction. (Count)
system.cpu11.exec_context.thread_0.statExecutedInstType::SimdAesMix            0      0.00%     79.64% # Class of executed instruction. (Count)
system.cpu11.exec_context.thread_0.statExecutedInstType::SimdSha1Hash            0      0.00%     79.64% # Class of executed instruction. (Count)
system.cpu11.exec_context.thread_0.statExecutedInstType::SimdSha1Hash2            0      0.00%     79.64% # Class of executed instruction. (Count)
system.cpu11.exec_context.thread_0.statExecutedInstType::SimdSha256Hash            0      0.00%     79.64% # Class of executed instruction. (Count)
system.cpu11.exec_context.thread_0.statExecutedInstType::SimdSha256Hash2            0      0.00%     79.64% # Class of executed instruction. (Count)
system.cpu11.exec_context.thread_0.statExecutedInstType::SimdShaSigma2            0      0.00%     79.64% # Class of executed instruction. (Count)
system.cpu11.exec_context.thread_0.statExecutedInstType::SimdShaSigma3            0      0.00%     79.64% # Class of executed instruction. (Count)
system.cpu11.exec_context.thread_0.statExecutedInstType::SimdPredAlu            0      0.00%     79.64% # Class of executed instruction. (Count)
system.cpu11.exec_context.thread_0.statExecutedInstType::MemRead      1719100     14.01%     93.65% # Class of executed instruction. (Count)
system.cpu11.exec_context.thread_0.statExecutedInstType::MemWrite       779110      6.35%    100.00% # Class of executed instruction. (Count)
system.cpu11.exec_context.thread_0.statExecutedInstType::FloatMemRead            0      0.00%    100.00% # Class of executed instruction. (Count)
system.cpu11.exec_context.thread_0.statExecutedInstType::FloatMemWrite           32      0.00%    100.00% # Class of executed instruction. (Count)
system.cpu11.exec_context.thread_0.statExecutedInstType::IprAccess            0      0.00%    100.00% # Class of executed instruction. (Count)
system.cpu11.exec_context.thread_0.statExecutedInstType::InstPrefetch            0      0.00%    100.00% # Class of executed instruction. (Count)
system.cpu11.exec_context.thread_0.statExecutedInstType::total     12269601                       # Class of executed instruction. (Count)
system.cpu11.interrupts.clk_domain.clock         8000                       # Clock period in ticks (Tick)
system.cpu11.mmu.dtb.rdAccesses               1725206                       # TLB accesses on read requests (Count)
system.cpu11.mmu.dtb.wrAccesses                782748                       # TLB accesses on write requests (Count)
system.cpu11.mmu.dtb.rdMisses                      20                       # TLB misses on read requests (Count)
system.cpu11.mmu.dtb.wrMisses                       3                       # TLB misses on write requests (Count)
system.cpu11.mmu.dtb.walker.power_state.pwrStateResidencyTicks::UNDEFINED 5062976179500                       # Cumulative time (in ticks) in various power states (Tick)
system.cpu11.mmu.itb.rdAccesses                     0                       # TLB accesses on read requests (Count)
system.cpu11.mmu.itb.wrAccesses               8535610                       # TLB accesses on write requests (Count)
system.cpu11.mmu.itb.rdMisses                       0                       # TLB misses on read requests (Count)
system.cpu11.mmu.itb.wrMisses                       8                       # TLB misses on write requests (Count)
system.cpu11.mmu.itb.walker.power_state.pwrStateResidencyTicks::UNDEFINED 5062976179500                       # Cumulative time (in ticks) in various power states (Tick)
system.cpu11.power_state.numTransitions          2498                       # Number of power state transitions (Count)
system.cpu11.power_state.ticksClkGated::samples         1250                       # Distribution of time spent in the clock gated state
system.cpu11.power_state.ticksClkGated::mean 3667882701.600000                       # Distribution of time spent in the clock gated state
system.cpu11.power_state.ticksClkGated::stdev 1065597343.590576                       # Distribution of time spent in the clock gated state
system.cpu11.power_state.ticksClkGated::1000-5e+10         1250    100.00%    100.00% # Distribution of time spent in the clock gated state
system.cpu11.power_state.ticksClkGated::min_value       667000                       # Distribution of time spent in the clock gated state
system.cpu11.power_state.ticksClkGated::max_value  10001274000                       # Distribution of time spent in the clock gated state
system.cpu11.power_state.ticksClkGated::total         1250                       # Distribution of time spent in the clock gated state
system.cpu11.power_state.pwrStateResidencyTicks::ON 478122802500                       # Cumulative time (in ticks) in various power states (Tick)
system.cpu11.power_state.pwrStateResidencyTicks::CLK_GATED 4584853377000                       # Cumulative time (in ticks) in various power states (Tick)
system.cpu11.thread_0.numInsts                      0                       # Number of Instructions committed (Count)
system.cpu11.thread_0.numOps                        0                       # Number of Ops committed (Count)
system.cpu11.thread_0.numMemRefs                    0                       # Number of Memory References (Count)
system.cpu12.numCycles                    10123390922                       # Number of cpu cycles simulated (Cycle)
system.cpu12.numWorkItemsStarted                    0                       # Number of work items this cpu started (Count)
system.cpu12.numWorkItemsCompleted                  0                       # Number of work items this cpu completed (Count)
system.cpu12.exec_context.thread_0.numInsts      6236706                       # Number of instructions committed (Count)
system.cpu12.exec_context.thread_0.numOps     12260730                       # Number of ops (including micro ops) committed (Count)
system.cpu12.exec_context.thread_0.numIntAluAccesses     12077730                       # Number of integer alu accesses (Count)
system.cpu12.exec_context.thread_0.numFpAluAccesses           48                       # Number of float alu accesses (Count)
system.cpu12.exec_context.thread_0.numVecAluAccesses            0                       # Number of vector alu accesses (Count)
system.cpu12.exec_context.thread_0.numCallsReturns       285479                       # Number of times a function call or return occured (Count)
system.cpu12.exec_context.thread_0.numCondCtrlInsts       866200                       # Number of instructions that are conditional controls (Count)
system.cpu12.exec_context.thread_0.numIntInsts     12077730                       # Number of integer instructions (Count)
system.cpu12.exec_context.thread_0.numFpInsts           48                       # Number of float instructions (Count)
system.cpu12.exec_context.thread_0.numVecInsts            0                       # Number of vector instructions (Count)
system.cpu12.exec_context.thread_0.numIntRegReads     23466975                       # Number of times the integer registers were read (Count)
system.cpu12.exec_context.thread_0.numIntRegWrites     10086178                       # Number of times the integer registers were written (Count)
system.cpu12.exec_context.thread_0.numFpRegReads           48                       # Number of times the floating registers were read (Count)
system.cpu12.exec_context.thread_0.numFpRegWrites            0                       # Number of times the floating registers were written (Count)
system.cpu12.exec_context.thread_0.numVecRegReads            0                       # Number of times the vector registers were read (Count)
system.cpu12.exec_context.thread_0.numVecRegWrites            0                       # Number of times the vector registers were written (Count)
system.cpu12.exec_context.thread_0.numVecPredRegReads            0                       # Number of times the predicate registers were read (Count)
system.cpu12.exec_context.thread_0.numVecPredRegWrites            0                       # Number of times the predicate registers were written (Count)
system.cpu12.exec_context.thread_0.numCCRegReads      8062386                       # Number of times the CC registers were read (Count)
system.cpu12.exec_context.thread_0.numCCRegWrites      4336673                       # Number of times the CC registers were written (Count)
system.cpu12.exec_context.thread_0.numMemRefs      2498473                       # Number of memory refs (Count)
system.cpu12.exec_context.thread_0.numLoadInsts      1720181                       # Number of load instructions (Count)
system.cpu12.exec_context.thread_0.numStoreInsts       778292                       # Number of store instructions (Count)
system.cpu12.exec_context.thread_0.numIdleCycles 10094095099.477142                       # Number of idle cycles (Cycle)
system.cpu12.exec_context.thread_0.numBusyCycles 29295822.522857                       # Number of busy cycles (Cycle)
system.cpu12.exec_context.thread_0.notIdleFraction     0.002894                       # Percentage of non-idle cycles (Ratio)
system.cpu12.exec_context.thread_0.idleFraction     0.997106                       # Percentage of idle cycles (Ratio)
system.cpu12.exec_context.thread_0.numBranches      1279921                       # Number of branches fetched (Count)
system.cpu12.exec_context.thread_0.statExecutedInstType::No_OpClass        63476      0.52%      0.52% # Class of executed instruction. (Count)
system.cpu12.exec_context.thread_0.statExecutedInstType::IntAlu      9671035     78.88%     79.40% # Class of executed instruction. (Count)
system.cpu12.exec_context.thread_0.statExecutedInstType::IntMult        29768      0.24%     79.64% # Class of executed instruction. (Count)
system.cpu12.exec_context.thread_0.statExecutedInstType::IntDiv          450      0.00%     79.64% # Class of executed instruction. (Count)
system.cpu12.exec_context.thread_0.statExecutedInstType::FloatAdd            0      0.00%     79.64% # Class of executed instruction. (Count)
system.cpu12.exec_context.thread_0.statExecutedInstType::FloatCmp            0      0.00%     79.64% # Class of executed instruction. (Count)
system.cpu12.exec_context.thread_0.statExecutedInstType::FloatCvt           16      0.00%     79.64% # Class of executed instruction. (Count)
system.cpu12.exec_context.thread_0.statExecutedInstType::FloatMult            0      0.00%     79.64% # Class of executed instruction. (Count)
system.cpu12.exec_context.thread_0.statExecutedInstType::FloatMultAcc            0      0.00%     79.64% # Class of executed instruction. (Count)
system.cpu12.exec_context.thread_0.statExecutedInstType::FloatDiv            0      0.00%     79.64% # Class of executed instruction. (Count)
system.cpu12.exec_context.thread_0.statExecutedInstType::FloatMisc            0      0.00%     79.64% # Class of executed instruction. (Count)
system.cpu12.exec_context.thread_0.statExecutedInstType::FloatSqrt            0      0.00%     79.64% # Class of executed instruction. (Count)
system.cpu12.exec_context.thread_0.statExecutedInstType::SimdAdd            0      0.00%     79.64% # Class of executed instruction. (Count)
system.cpu12.exec_context.thread_0.statExecutedInstType::SimdAddAcc            0      0.00%     79.64% # Class of executed instruction. (Count)
system.cpu12.exec_context.thread_0.statExecutedInstType::SimdAlu            0      0.00%     79.64% # Class of executed instruction. (Count)
system.cpu12.exec_context.thread_0.statExecutedInstType::SimdCmp            0      0.00%     79.64% # Class of executed instruction. (Count)
system.cpu12.exec_context.thread_0.statExecutedInstType::SimdCvt            0      0.00%     79.64% # Class of executed instruction. (Count)
system.cpu12.exec_context.thread_0.statExecutedInstType::SimdMisc            0      0.00%     79.64% # Class of executed instruction. (Count)
system.cpu12.exec_context.thread_0.statExecutedInstType::SimdMult            0      0.00%     79.64% # Class of executed instruction. (Count)
system.cpu12.exec_context.thread_0.statExecutedInstType::SimdMultAcc            0      0.00%     79.64% # Class of executed instruction. (Count)
system.cpu12.exec_context.thread_0.statExecutedInstType::SimdShift            0      0.00%     79.64% # Class of executed instruction. (Count)
system.cpu12.exec_context.thread_0.statExecutedInstType::SimdShiftAcc            0      0.00%     79.64% # Class of executed instruction. (Count)
system.cpu12.exec_context.thread_0.statExecutedInstType::SimdDiv            0      0.00%     79.64% # Class of executed instruction. (Count)
system.cpu12.exec_context.thread_0.statExecutedInstType::SimdSqrt            0      0.00%     79.64% # Class of executed instruction. (Count)
system.cpu12.exec_context.thread_0.statExecutedInstType::SimdFloatAdd            0      0.00%     79.64% # Class of executed instruction. (Count)
system.cpu12.exec_context.thread_0.statExecutedInstType::SimdFloatAlu            0      0.00%     79.64% # Class of executed instruction. (Count)
system.cpu12.exec_context.thread_0.statExecutedInstType::SimdFloatCmp            0      0.00%     79.64% # Class of executed instruction. (Count)
system.cpu12.exec_context.thread_0.statExecutedInstType::SimdFloatCvt            0      0.00%     79.64% # Class of executed instruction. (Count)
system.cpu12.exec_context.thread_0.statExecutedInstType::SimdFloatDiv            0      0.00%     79.64% # Class of executed instruction. (Count)
system.cpu12.exec_context.thread_0.statExecutedInstType::SimdFloatMisc            0      0.00%     79.64% # Class of executed instruction. (Count)
system.cpu12.exec_context.thread_0.statExecutedInstType::SimdFloatMult            0      0.00%     79.64% # Class of executed instruction. (Count)
system.cpu12.exec_context.thread_0.statExecutedInstType::SimdFloatMultAcc            0      0.00%     79.64% # Class of executed instruction. (Count)
system.cpu12.exec_context.thread_0.statExecutedInstType::SimdFloatSqrt            0      0.00%     79.64% # Class of executed instruction. (Count)
system.cpu12.exec_context.thread_0.statExecutedInstType::SimdReduceAdd            0      0.00%     79.64% # Class of executed instruction. (Count)
system.cpu12.exec_context.thread_0.statExecutedInstType::SimdReduceAlu            0      0.00%     79.64% # Class of executed instruction. (Count)
system.cpu12.exec_context.thread_0.statExecutedInstType::SimdReduceCmp            0      0.00%     79.64% # Class of executed instruction. (Count)
system.cpu12.exec_context.thread_0.statExecutedInstType::SimdFloatReduceAdd            0      0.00%     79.64% # Class of executed instruction. (Count)
system.cpu12.exec_context.thread_0.statExecutedInstType::SimdFloatReduceCmp            0      0.00%     79.64% # Class of executed instruction. (Count)
system.cpu12.exec_context.thread_0.statExecutedInstType::SimdAes            0      0.00%     79.64% # Class of executed instruction. (Count)
system.cpu12.exec_context.thread_0.statExecutedInstType::SimdAesMix            0      0.00%     79.64% # Class of executed instruction. (Count)
system.cpu12.exec_context.thread_0.statExecutedInstType::SimdSha1Hash            0      0.00%     79.64% # Class of executed instruction. (Count)
system.cpu12.exec_context.thread_0.statExecutedInstType::SimdSha1Hash2            0      0.00%     79.64% # Class of executed instruction. (Count)
system.cpu12.exec_context.thread_0.statExecutedInstType::SimdSha256Hash            0      0.00%     79.64% # Class of executed instruction. (Count)
system.cpu12.exec_context.thread_0.statExecutedInstType::SimdSha256Hash2            0      0.00%     79.64% # Class of executed instruction. (Count)
system.cpu12.exec_context.thread_0.statExecutedInstType::SimdShaSigma2            0      0.00%     79.64% # Class of executed instruction. (Count)
system.cpu12.exec_context.thread_0.statExecutedInstType::SimdShaSigma3            0      0.00%     79.64% # Class of executed instruction. (Count)
system.cpu12.exec_context.thread_0.statExecutedInstType::SimdPredAlu            0      0.00%     79.64% # Class of executed instruction. (Count)
system.cpu12.exec_context.thread_0.statExecutedInstType::MemRead      1717693     14.01%     93.65% # Class of executed instruction. (Count)
system.cpu12.exec_context.thread_0.statExecutedInstType::MemWrite       778260      6.35%    100.00% # Class of executed instruction. (Count)
system.cpu12.exec_context.thread_0.statExecutedInstType::FloatMemRead            0      0.00%    100.00% # Class of executed instruction. (Count)
system.cpu12.exec_context.thread_0.statExecutedInstType::FloatMemWrite           32      0.00%    100.00% # Class of executed instruction. (Count)
system.cpu12.exec_context.thread_0.statExecutedInstType::IprAccess            0      0.00%    100.00% # Class of executed instruction. (Count)
system.cpu12.exec_context.thread_0.statExecutedInstType::InstPrefetch            0      0.00%    100.00% # Class of executed instruction. (Count)
system.cpu12.exec_context.thread_0.statExecutedInstType::total     12260730                       # Class of executed instruction. (Count)
system.cpu12.interrupts.clk_domain.clock         8000                       # Clock period in ticks (Tick)
system.cpu12.mmu.dtb.rdAccesses               1723779                       # TLB accesses on read requests (Count)
system.cpu12.mmu.dtb.wrAccesses                781887                       # TLB accesses on write requests (Count)
system.cpu12.mmu.dtb.rdMisses                      19                       # TLB misses on read requests (Count)
system.cpu12.mmu.dtb.wrMisses                       3                       # TLB misses on write requests (Count)
system.cpu12.mmu.dtb.walker.power_state.pwrStateResidencyTicks::UNDEFINED 5062976179500                       # Cumulative time (in ticks) in various power states (Tick)
system.cpu12.mmu.itb.rdAccesses                     0                       # TLB accesses on read requests (Count)
system.cpu12.mmu.itb.wrAccesses               8529880                       # TLB accesses on write requests (Count)
system.cpu12.mmu.itb.rdMisses                       0                       # TLB misses on read requests (Count)
system.cpu12.mmu.itb.wrMisses                       8                       # TLB misses on write requests (Count)
system.cpu12.mmu.itb.walker.power_state.pwrStateResidencyTicks::UNDEFINED 5062976179500                       # Cumulative time (in ticks) in various power states (Tick)
system.cpu12.power_state.numTransitions          2490                       # Number of power state transitions (Count)
system.cpu12.power_state.ticksClkGated::samples         1246                       # Distribution of time spent in the clock gated state
system.cpu12.power_state.ticksClkGated::mean 3670116376.003210                       # Distribution of time spent in the clock gated state
system.cpu12.power_state.ticksClkGated::stdev 1059437936.705112                       # Distribution of time spent in the clock gated state
system.cpu12.power_state.ticksClkGated::1000-5e+10         1246    100.00%    100.00% # Distribution of time spent in the clock gated state
system.cpu12.power_state.ticksClkGated::min_value       667000                       # Distribution of time spent in the clock gated state
system.cpu12.power_state.ticksClkGated::max_value  10001274000                       # Distribution of time spent in the clock gated state
system.cpu12.power_state.ticksClkGated::total         1246                       # Distribution of time spent in the clock gated state
system.cpu12.power_state.pwrStateResidencyTicks::ON 490011175000                       # Cumulative time (in ticks) in various power states (Tick)
system.cpu12.power_state.pwrStateResidencyTicks::CLK_GATED 4572965004500                       # Cumulative time (in ticks) in various power states (Tick)
system.cpu12.thread_0.numInsts                      0                       # Number of Instructions committed (Count)
system.cpu12.thread_0.numOps                        0                       # Number of Ops committed (Count)
system.cpu12.thread_0.numMemRefs                    0                       # Number of Memory References (Count)
system.cpu13.numCycles                    10122908656                       # Number of cpu cycles simulated (Cycle)
system.cpu13.numWorkItemsStarted                    0                       # Number of work items this cpu started (Count)
system.cpu13.numWorkItemsCompleted                  0                       # Number of work items this cpu completed (Count)
system.cpu13.exec_context.thread_0.numInsts      6233074                       # Number of instructions committed (Count)
system.cpu13.exec_context.thread_0.numOps     12253232                       # Number of ops (including micro ops) committed (Count)
system.cpu13.exec_context.thread_0.numIntAluAccesses     12070297                       # Number of integer alu accesses (Count)
system.cpu13.exec_context.thread_0.numFpAluAccesses           48                       # Number of float alu accesses (Count)
system.cpu13.exec_context.thread_0.numVecAluAccesses            0                       # Number of vector alu accesses (Count)
system.cpu13.exec_context.thread_0.numCallsReturns       285205                       # Number of times a function call or return occured (Count)
system.cpu13.exec_context.thread_0.numCondCtrlInsts       865883                       # Number of instructions that are conditional controls (Count)
system.cpu13.exec_context.thread_0.numIntInsts     12070297                       # Number of integer instructions (Count)
system.cpu13.exec_context.thread_0.numFpInsts           48                       # Number of float instructions (Count)
system.cpu13.exec_context.thread_0.numVecInsts            0                       # Number of vector instructions (Count)
system.cpu13.exec_context.thread_0.numIntRegReads     23451669                       # Number of times the integer registers were read (Count)
system.cpu13.exec_context.thread_0.numIntRegWrites     10080109                       # Number of times the integer registers were written (Count)
system.cpu13.exec_context.thread_0.numFpRegReads           48                       # Number of times the floating registers were read (Count)
system.cpu13.exec_context.thread_0.numFpRegWrites            0                       # Number of times the floating registers were written (Count)
system.cpu13.exec_context.thread_0.numVecRegReads            0                       # Number of times the vector registers were read (Count)
system.cpu13.exec_context.thread_0.numVecRegWrites            0                       # Number of times the vector registers were written (Count)
system.cpu13.exec_context.thread_0.numVecPredRegReads            0                       # Number of times the predicate registers were read (Count)
system.cpu13.exec_context.thread_0.numVecPredRegWrites            0                       # Number of times the predicate registers were written (Count)
system.cpu13.exec_context.thread_0.numCCRegReads      8059384                       # Number of times the CC registers were read (Count)
system.cpu13.exec_context.thread_0.numCCRegWrites      4334492                       # Number of times the CC registers were written (Count)
system.cpu13.exec_context.thread_0.numMemRefs      2496435                       # Number of memory refs (Count)
system.cpu13.exec_context.thread_0.numLoadInsts      1718913                       # Number of load instructions (Count)
system.cpu13.exec_context.thread_0.numStoreInsts       777522                       # Number of store instructions (Count)
system.cpu13.exec_context.thread_0.numIdleCycles 10093774877.791401                       # Number of idle cycles (Cycle)
[...]
system.ruby.network.netifs25.power_state.pwrStateResidencyTicks::UNDEFINED 5068392881000                       # Cumulative time (in ticks) in various power states (Tick)
system.ruby.network.netifs26.power_state.pwrStateResidencyTicks::UNDEFINED 5068392881000                       # Cumulative time (in ticks) in various power states (Tick)
system.ruby.network.netifs27.power_state.pwrStateResidencyTicks::UNDEFINED 5068392881000                       # Cumulative time (in ticks) in various power states (Tick)
system.ruby.network.netifs28.power_state.pwrStateResidencyTicks::UNDEFINED 5068392881000                       # Cumulative time (in ticks) in various power states (Tick)
system.ruby.network.netifs29.power_state.pwrStateResidencyTicks::UNDEFINED 5068392881000                       # Cumulative time (in ticks) in various power states (Tick)
system.ruby.network.netifs3.power_state.pwrStateResidencyTicks::UNDEFINED 5068392881000                       # Cumulative time (in ticks) in various power states (Tick)
system.ruby.network.netifs30.power_state.pwrStateResidencyTicks::UNDEFINED 5068392881000                       # Cumulative time (in ticks) in various power states (Tick)
system.ruby.network.netifs31.power_state.pwrStateResidencyTicks::UNDEFINED 5068392881000                       # Cumulative time (in ticks) in various power states (Tick)
system.ruby.network.netifs32.power_state.pwrStateResidencyTicks::UNDEFINED 5068392881000                       # Cumulative time (in ticks) in various power states (Tick)
system.ruby.network.netifs33.power_state.pwrStateResidencyTicks::UNDEFINED 5068392881000                       # Cumulative time (in ticks) in various power states (Tick)
system.ruby.network.netifs4.power_state.pwrStateResidencyTicks::UNDEFINED 5068392881000                       # Cumulative time (in ticks) in various power states (Tick)
system.ruby.network.netifs5.power_state.pwrStateResidencyTicks::UNDEFINED 5068392881000                       # Cumulative time (in ticks) in various power states (Tick)
system.ruby.network.netifs6.power_state.pwrStateResidencyTicks::UNDEFINED 5068392881000                       # Cumulative time (in ticks) in various power states (Tick)
system.ruby.network.netifs7.power_state.pwrStateResidencyTicks::UNDEFINED 5068392881000                       # Cumulative time (in ticks) in various power states (Tick)
system.ruby.network.netifs8.power_state.pwrStateResidencyTicks::UNDEFINED 5068392881000                       # Cumulative time (in ticks) in various power states (Tick)
system.ruby.network.netifs9.power_state.pwrStateResidencyTicks::UNDEFINED 5068392881000                       # Cumulative time (in ticks) in various power states (Tick)
system.ruby.network.power_state.pwrStateResidencyTicks::UNDEFINED 5068392881000                       # Cumulative time (in ticks) in various power states (Tick)
system.ruby.network.routers0.power_state.pwrStateResidencyTicks::UNDEFINED 5068392881000                       # Cumulative time (in ticks) in various power states (Tick)
system.ruby.network.routers1.power_state.pwrStateResidencyTicks::UNDEFINED 5068392881000                       # Cumulative time (in ticks) in various power states (Tick)
system.ruby.network.routers10.power_state.pwrStateResidencyTicks::UNDEFINED 5068392881000                       # Cumulative time (in ticks) in various power states (Tick)
system.ruby.network.routers11.power_state.pwrStateResidencyTicks::UNDEFINED 5068392881000                       # Cumulative time (in ticks) in various power states (Tick)
system.ruby.network.routers12.power_state.pwrStateResidencyTicks::UNDEFINED 5068392881000                       # Cumulative time (in ticks) in various power states (Tick)
system.ruby.network.routers13.power_state.pwrStateResidencyTicks::UNDEFINED 5068392881000                       # Cumulative time (in ticks) in various power states (Tick)
system.ruby.network.routers14.power_state.pwrStateResidencyTicks::UNDEFINED 5068392881000                       # Cumulative time (in ticks) in various power states (Tick)
system.ruby.network.routers15.power_state.pwrStateResidencyTicks::UNDEFINED 5068392881000                       # Cumulative time (in ticks) in various power states (Tick)
system.ruby.network.routers2.power_state.pwrStateResidencyTicks::UNDEFINED 5068392881000                       # Cumulative time (in ticks) in various power states (Tick)
system.ruby.network.routers3.power_state.pwrStateResidencyTicks::UNDEFINED 5068392881000                       # Cumulative time (in ticks) in various power states (Tick)
system.ruby.network.routers4.power_state.pwrStateResidencyTicks::UNDEFINED 5068392881000                       # Cumulative time (in ticks) in various power states (Tick)
system.ruby.network.routers5.power_state.pwrStateResidencyTicks::UNDEFINED 5068392881000                       # Cumulative time (in ticks) in various power states (Tick)
system.ruby.network.routers6.power_state.pwrStateResidencyTicks::UNDEFINED 5068392881000                       # Cumulative time (in ticks) in various power states (Tick)
system.ruby.network.routers7.power_state.pwrStateResidencyTicks::UNDEFINED 5068392881000                       # Cumulative time (in ticks) in various power states (Tick)
system.ruby.network.routers8.power_state.pwrStateResidencyTicks::UNDEFINED 5068392881000                       # Cumulative time (in ticks) in various power states (Tick)
system.ruby.network.routers9.power_state.pwrStateResidencyTicks::UNDEFINED 5068392881000                       # Cumulative time (in ticks) in various power states (Tick)
system.ruby.power_state.pwrStateResidencyTicks::UNDEFINED 5068392881000                       # Cumulative time (in ticks) in various power states (Tick)
system.sys_port_proxy.power_state.pwrStateResidencyTicks::UNDEFINED   5416701500                       # Cumulative time (in ticks) in various power states (Tick)
system.voltage_domain.voltage                       1                       # Voltage in Volts (Volt)
system.workload.inst.arm                            0                       # number of arm instructions executed (Count)
system.workload.inst.quiesce                      123                       # number of quiesce instructions executed (Count)
system.ruby.network.average_flit_latency 10659.790211                       (Unspecified)
system.ruby.network.average_flit_network_latency  5618.961003                       (Unspecified)
system.ruby.network.average_flit_queueing_latency  5040.829208                       (Unspecified)
system.ruby.network.average_flit_vnet_latency | 9725.476153                       | 6250.687328                       | 4263.122159                       | 5460.320424                       | 5589.934954                       | 7027.537672                       (Unspecified)
system.ruby.network.average_flit_vqueue_latency | 4767.308611                       |         500                       | 1057.846726                       | 5540.461370                       | 4908.889527                       | 5000.264945                       (Unspecified)
system.ruby.network.average_hops             2.628540                       (Unspecified)
system.ruby.network.average_packet_latency 10748.633934                       (Unspecified)
system.ruby.network.average_packet_network_latency  5584.913165                       (Unspecified)
system.ruby.network.average_packet_queueing_latency  5163.720769                       (Unspecified)
system.ruby.network.average_packet_vnet_latency | 9725.476153                       | 6312.907847                       | 4263.122159                       | 5460.320424                       | 5607.016439                       | 6227.534392                       (Unspecified)
system.ruby.network.average_packet_vqueue_latency | 4767.308611                       |         500                       | 1057.846726                       | 5540.461370                       | 5144.205498                       | 5000.118085                       (Unspecified)
system.ruby.network.avg_link_utilization     0.765431                       (Unspecified)
system.ruby.network.avg_vc_load          |    0.006749      0.88%      0.88% |    0.001523      0.20%      1.08% |    0.000854      0.11%      1.19% |    0.000725      0.09%      1.29% |    0.006170      0.81%      2.09% |    0.002289      0.30%      2.39% |    0.001236      0.16%      2.55% |    0.000760      0.10%      2.65% |    0.013749      1.80%      4.45% |    0.001327      0.17%      4.62% |    0.000885      0.12%      4.74% |    0.000885      0.12%      4.85% |    0.179728     23.48%     28.33% |    0.067673      8.84%     37.18% |    0.042351      5.53%     42.71% |    0.025497      3.33%     46.04% |    0.195810     25.58%     71.62% |    0.090659     11.84%     83.47% |    0.061567      8.04%     91.51% |    0.034896      4.56%     96.07% |    0.025253      3.30%     99.37% |    0.001692      0.22%     99.59% |    0.001595      0.21%     99.80% |    0.001558      0.20%    100.00% (Unspecified)
system.ruby.network.avg_vc_load::total       0.765431                       (Unspecified)
system.ruby.network.ext_in_link_utilization      1581973                       (Unspecified)
system.ruby.network.ext_out_link_utilization      1581969                       (Unspecified)
system.ruby.network.flit_network_latency |   183315500                       |   125045000                       |   144409000                       |  3670274500                       |  4341579500                       |   424393000                       (Unspecified)
system.ruby.network.flit_queueing_latency |    89859000                       |    10002500                       |    35833500                       |  3724143000                       |  3812626500                       |   301966000                       (Unspecified)
system.ruby.network.flits_injected       |       18849      1.19%      1.19% |       20005      1.26%      2.46% |       33874      2.14%      4.60% |      672172     42.49%     47.09% |      776683     49.10%     96.18% |       60390      3.82%    100.00% (Unspecified)
system.ruby.network.flits_injected::total      1581973                       (Unspecified)
system.ruby.network.flits_received       |       18849      1.19%      1.19% |       20005      1.26%      2.46% |       33874      2.14%      4.60% |      672172     42.49%     47.09% |      776678     49.10%     96.18% |       60390      3.82%    100.00% (Unspecified)
system.ruby.network.flits_received::total      1581968                       (Unspecified)
system.ruby.network.int_link_utilization      4158277                       (Unspecified)
system.ruby.network.packet_network_latency |   183315500                       |   118992000                       |   144409000                       |  3670274500                       |  3801680500                       |   210951500                       (Unspecified)
system.ruby.network.packet_queueing_latency |    89859000                       |     9424500                       |    35833500                       |  3724143000                       |  3487884500                       |   169374000                       (Unspecified)
system.ruby.network.packets_injected     |       18849      1.29%      1.29% |       18849      1.29%      2.59% |       33874      2.33%      4.92% |      672172     46.18%     51.09% |      678027     46.58%     97.67% |       33874      2.33%    100.00% (Unspecified)
system.ruby.network.packets_injected::total      1455645                       (Unspecified)
system.ruby.network.packets_received     |       18849      1.29%      1.29% |       18849      1.29%      2.59% |       33874      2.33%      4.92% |      672172     46.18%     51.09% |      678022     46.58%     97.67% |       33874      2.33%    100.00% (Unspecified)
system.ruby.network.packets_received::total      1455640                       (Unspecified)
system.ruby.network.routers00.buffer_reads       559266                       (Unspecified)
system.ruby.network.routers00.buffer_writes       559266                       (Unspecified)
system.ruby.network.routers00.crossbar_activity       559266                       (Unspecified)
system.ruby.network.routers00.sw_input_arbiter_activity       596447                       (Unspecified)
system.ruby.network.routers00.sw_output_arbiter_activity       559266                       (Unspecified)
system.ruby.network.routers01.buffer_reads       407501                       (Unspecified)
system.ruby.network.routers01.buffer_writes       407501                       (Unspecified)
system.ruby.network.routers01.crossbar_activity       407501                       (Unspecified)
system.ruby.network.routers01.sw_input_arbiter_activity       454188                       (Unspecified)
system.ruby.network.routers01.sw_output_arbiter_activity       407501                       (Unspecified)
system.ruby.network.routers02.buffer_reads       374355                       (Unspecified)
system.ruby.network.routers02.buffer_writes       374355                       (Unspecified)
system.ruby.network.routers02.crossbar_activity       374355                       (Unspecified)
system.ruby.network.routers02.sw_input_arbiter_activity       422460                       (Unspecified)
system.ruby.network.routers02.sw_output_arbiter_activity       374355                       (Unspecified)
system.ruby.network.routers03.buffer_reads       217553                       (Unspecified)
system.ruby.network.routers03.buffer_writes       217553                       (Unspecified)
system.ruby.network.routers03.crossbar_activity       217553                       (Unspecified)
system.ruby.network.routers03.sw_input_arbiter_activity       233700                       (Unspecified)
system.ruby.network.routers03.sw_output_arbiter_activity       217553                       (Unspecified)
system.ruby.network.routers04.buffer_reads       495244                       (Unspecified)
system.ruby.network.routers04.buffer_writes       495244                       (Unspecified)
system.ruby.network.routers04.crossbar_activity       495244                       (Unspecified)
system.ruby.network.routers04.sw_input_arbiter_activity       547134                       (Unspecified)
system.ruby.network.routers04.sw_output_arbiter_activity       495244                       (Unspecified)
system.ruby.network.routers05.buffer_reads       452876                       (Unspecified)
system.ruby.network.routers05.buffer_writes       452876                       (Unspecified)
system.ruby.network.routers05.crossbar_activity       452876                       (Unspecified)
system.ruby.network.routers05.sw_input_arbiter_activity       522582                       (Unspecified)
system.ruby.network.routers05.sw_output_arbiter_activity       452876                       (Unspecified)
system.ruby.network.routers06.buffer_reads       431448                       (Unspecified)
system.ruby.network.routers06.buffer_writes       431448                       (Unspecified)
system.ruby.network.routers06.crossbar_activity       431448                       (Unspecified)
system.ruby.network.routers06.sw_input_arbiter_activity       500563                       (Unspecified)
system.ruby.network.routers06.sw_output_arbiter_activity       431448                       (Unspecified)
system.ruby.network.routers07.buffer_reads       277947                       (Unspecified)
system.ruby.network.routers07.buffer_writes       277947                       (Unspecified)
system.ruby.network.routers07.crossbar_activity       277947                       (Unspecified)
system.ruby.network.routers07.sw_input_arbiter_activity       313015                       (Unspecified)
system.ruby.network.routers07.sw_output_arbiter_activity       277947                       (Unspecified)
system.ruby.network.routers08.buffer_reads       403925                       (Unspecified)
system.ruby.network.routers08.buffer_writes       403925                       (Unspecified)
system.ruby.network.routers08.crossbar_activity       403925                       (Unspecified)
system.ruby.network.routers08.sw_input_arbiter_activity       446034                       (Unspecified)
system.ruby.network.routers08.sw_output_arbiter_activity       403925                       (Unspecified)
system.ruby.network.routers09.buffer_reads       410370                       (Unspecified)
system.ruby.network.routers09.buffer_writes       410370                       (Unspecified)
system.ruby.network.routers09.crossbar_activity       410370                       (Unspecified)
system.ruby.network.routers09.sw_input_arbiter_activity       458519                       (Unspecified)
system.ruby.network.routers09.sw_output_arbiter_activity       410370                       (Unspecified)
system.ruby.network.routers10.buffer_reads       385500                       (Unspecified)
system.ruby.network.routers10.buffer_writes       385500                       (Unspecified)
system.ruby.network.routers10.crossbar_activity       385500                       (Unspecified)
system.ruby.network.routers10.sw_input_arbiter_activity       438510                       (Unspecified)
system.ruby.network.routers10.sw_output_arbiter_activity       385500                       (Unspecified)
system.ruby.network.routers11.buffer_reads       266263                       (Unspecified)
system.ruby.network.routers11.buffer_writes       266263                       (Unspecified)
system.ruby.network.routers11.crossbar_activity       266263                       (Unspecified)
system.ruby.network.routers11.sw_input_arbiter_activity       297055                       (Unspecified)
system.ruby.network.routers11.sw_output_arbiter_activity       266263                       (Unspecified)
system.ruby.network.routers12.buffer_reads       251769                       (Unspecified)
system.ruby.network.routers12.buffer_writes       251769                       (Unspecified)
system.ruby.network.routers12.crossbar_activity       251769                       (Unspecified)
system.ruby.network.routers12.sw_input_arbiter_activity       262984                       (Unspecified)
system.ruby.network.routers12.sw_output_arbiter_activity       251769                       (Unspecified)
system.ruby.network.routers13.buffer_reads       312288                       (Unspecified)
system.ruby.network.routers13.buffer_writes       312288                       (Unspecified)
system.ruby.network.routers13.crossbar_activity       312288                       (Unspecified)
system.ruby.network.routers13.sw_input_arbiter_activity       340169                       (Unspecified)
system.ruby.network.routers13.sw_output_arbiter_activity       312288                       (Unspecified)
system.ruby.network.routers14.buffer_reads       296211                       (Unspecified)
system.ruby.network.routers14.buffer_writes       296211                       (Unspecified)
system.ruby.network.routers14.crossbar_activity       296211                       (Unspecified)
system.ruby.network.routers14.sw_input_arbiter_activity       328422                       (Unspecified)
system.ruby.network.routers14.sw_output_arbiter_activity       296211                       (Unspecified)
system.ruby.network.routers15.buffer_reads       197731                       (Unspecified)
system.ruby.network.routers15.buffer_writes       197731                       (Unspecified)
system.ruby.network.routers15.crossbar_activity       197731                       (Unspecified)
system.ruby.network.routers15.sw_input_arbiter_activity       209250                       (Unspecified)
system.ruby.network.routers15.sw_output_arbiter_activity       197731                       (Unspecified)

---------- End Simulation Statistics   ----------
